MODEL 1
REMARK VINA RESULT:     -11.6      0.000      0.000
REMARK  14 active torsions:
REMARK  status: ('A' for Active; 'I' for Inactive)
REMARK    1  A    between atoms: N1_1  and  C31_43 
REMARK    2  A    between atoms: C2_3  and  C3_4 
REMARK       I    between atoms: C3_4  and  N2_6 
REMARK    3  A    between atoms: N2_6  and  C4_8 
REMARK    4  A    between atoms: N3_12  and  C10_15 
REMARK    5  A    between atoms: C10_15  and  C11_16 
REMARK    6  A    between atoms: C11_16  and  O2_17 
REMARK    7  A    between atoms: C11_16  and  C12_19 
REMARK    8  A    between atoms: C12_19  and  C13_20 
REMARK    9  A    between atoms: C13_20  and  C21_28 
REMARK   10  A    between atoms: C13_20  and  C14_21 
REMARK   11  A    between atoms: C14_21  and  C15_22 
REMARK       I    between atoms: C21_28  and  N4_30 
REMARK   12  A    between atoms: N4_30  and  C22_32 
REMARK   13  A    between atoms: C23_33  and  O4_34 
REMARK   14  A    between atoms: C31_43  and  C32_44 
ROOT
HETATM    1  N1  MK1 B 902       9.140  24.140   3.066  1.00 28.25     0.096 N 
HETATM    2  C1  MK1 B 902       9.402  24.282   4.523  1.00 30.30     0.307 C 
HETATM    3  C2  MK1 B 902      10.580  25.086   5.038  1.00 27.27     0.200 C 
HETATM    4  N3  MK1 B 902      11.738  24.385   4.381  1.00 28.91    -0.395 N 
HETATM    5  C8  MK1 B 902      11.603  23.942   2.971  1.00 26.24     0.148 C 
HETATM    6  C9  MK1 B 902      10.236  23.482   2.509  1.00 27.47     0.292 C 
ENDROOT
BRANCH   1   7
HETATM    7  C31 MK1 B 902       7.833  23.603   2.668  1.00 36.25     0.312 C 
BRANCH   7   8
HETATM    8  C32 MK1 B 902       6.539  24.062   3.350  1.00 42.75    -0.015 A 
HETATM    9  C36 MK1 B 902       5.635  23.092   3.727  1.00 44.71     0.011 A 
HETATM   10  C35 MK1 B 902       4.449  23.504   4.329  1.00 49.34     0.018 A 
HETATM   11  C34 MK1 B 902       4.207  24.866   4.531  1.00 50.60     0.087 A 
HETATM   12  N5  MK1 B 902       5.065  25.908   4.181  1.00 51.38    -0.375 N 
HETATM   13  C33 MK1 B 902       6.234  25.411   3.582  1.00 47.41     0.096 A 
HETATM   14  H5  MK1 B 902       4.869  26.897   4.338  1.00  0.00     0.164 HD
ENDBRANCH   7   8
ENDBRANCH   1   7
BRANCH   3  15
HETATM   15  C3  MK1 B 902      10.603  24.986   6.539  1.00 28.85     0.242 C 
HETATM   16  O1  MK1 B 902      10.710  23.895   7.084  1.00 29.59    -0.271 OA
HETATM   17  N2  MK1 B 902      10.489  26.112   7.215  1.00 22.29    -0.351 N 
HETATM   18  H2  MK1 B 902      10.338  26.943   6.642  1.00  0.00     0.163 HD
BRANCH  17  19
HETATM   19  C4  MK1 B 902      10.544  26.356   8.621  1.00 23.47     0.022 C 
HETATM   20  C7  MK1 B 902       9.580  25.563   9.391  1.00 22.75     0.037 C 
HETATM   21  C5  MK1 B 902      10.108  27.816   8.842  1.00 27.66     0.037 C 
HETATM   22  C6  MK1 B 902      11.799  26.139   9.167  1.00 21.71     0.037 C 
ENDBRANCH  17  19
ENDBRANCH   3  15
BRANCH   4  23
HETATM   23  C10 MK1 B 902      13.060  24.946   4.577  1.00 20.86     0.149 C 
BRANCH  23  24
HETATM   24  C11 MK1 B 902      14.087  23.953   5.122  1.00 21.68     0.136 C 
BRANCH  24  25
HETATM   25  O2  MK1 B 902      15.202  24.676   4.693  1.00 15.87    -0.394 OA
HETATM   26  H2  MK1 B 902      15.646  25.014   5.462  1.00  0.00     0.210 HD
ENDBRANCH  24  25
BRANCH  24  27
HETATM   27  C12 MK1 B 902      14.274  23.634   6.617  1.00 21.49     0.047 C 
BRANCH  27  28
HETATM   28  C13 MK1 B 902      15.444  22.760   7.089  1.00 26.89     0.084 C 
BRANCH  28  29
HETATM   29  C21 MK1 B 902      15.427  21.380   6.442  1.00 29.35     0.222 C 
HETATM   30  N4  MK1 B 902      16.601  20.949   5.988  1.00 31.19    -0.350 N 
HETATM   31  H4  MK1 B 902      17.365  21.615   5.872  1.00  0.00     0.163 HD
HETATM   32  O3  MK1 B 902      14.398  20.688   6.458  1.00 32.66    -0.273 OA
BRANCH  30  33
HETATM   33  C22 MK1 B 902      16.820  19.553   5.652  1.00 29.22     0.147 C 
HETATM   34  C30 MK1 B 902      16.588  19.101   4.186  1.00 31.86    -0.027 A 
HETATM   35  C29 MK1 B 902      15.675  19.443   3.240  1.00 27.70     0.010 A 
HETATM   36  C25 MK1 B 902      17.639  18.039   3.755  1.00 31.29    -0.047 A 
HETATM   37  C28 MK1 B 902      15.693  18.878   1.971  1.00 29.01     0.001 A 
HETATM   38  C27 MK1 B 902      16.655  17.931   1.589  1.00 28.00     0.001 A 
HETATM   39  C26 MK1 B 902      17.639  17.505   2.488  1.00 32.00     0.008 A 
HETATM   40  C24 MK1 B 902      18.477  17.929   5.005  1.00 32.05     0.073 C 
HETATM   41  C23 MK1 B 902      18.258  19.126   5.900  1.00 28.82     0.149 C 
BRANCH  41  42
HETATM   42  O4  MK1 B 902      19.142  20.207   5.643  1.00 28.32    -0.393 OA
HETATM   43  H4  MK1 B 902      20.044  19.907   5.667  1.00  0.00     0.210 HD
ENDBRANCH  41  42
ENDBRANCH  30  33
ENDBRANCH  28  29
BRANCH  28  44
HETATM   44  C14 MK1 B 902      15.465  22.591   8.619  1.00 28.67     0.052 C 
BRANCH  44  45
HETATM   45  C15 MK1 B 902      16.569  21.712   9.078  1.00 26.89    -0.057 A 
HETATM   46  C16 MK1 B 902      17.909  21.970   8.782  1.00 29.22     0.007 A 
HETATM   47  C17 MK1 B 902      18.906  21.101   9.201  1.00 29.22     0.001 A 
HETATM   48  C18 MK1 B 902      18.544  19.961   9.923  1.00 30.97     0.000 A 
HETATM   49  C19 MK1 B 902      17.202  19.703  10.229  1.00 29.25     0.001 A 
HETATM   50  C20 MK1 B 902      16.212  20.587   9.801  1.00 29.96     0.007 A 
ENDBRANCH  44  45
ENDBRANCH  28  44
ENDBRANCH  27  28
ENDBRANCH  24  27
ENDBRANCH  23  24
ENDBRANCH   4  23
TORSDOF 14
ENDMDL
MODEL 2
REMARK VINA RESULT:     -10.6      1.353      4.185
REMARK  14 active torsions:
REMARK  status: ('A' for Active; 'I' for Inactive)
REMARK    1  A    between atoms: N1_1  and  C31_43 
REMARK    2  A    between atoms: C2_3  and  C3_4 
REMARK       I    between atoms: C3_4  and  N2_6 
REMARK    3  A    between atoms: N2_6  and  C4_8 
REMARK    4  A    between atoms: N3_12  and  C10_15 
REMARK    5  A    between atoms: C10_15  and  C11_16 
REMARK    6  A    between atoms: C11_16  and  O2_17 
REMARK    7  A    between atoms: C11_16  and  C12_19 
REMARK    8  A    between atoms: C12_19  and  C13_20 
REMARK    9  A    between atoms: C13_20  and  C21_28 
REMARK   10  A    between atoms: C13_20  and  C14_21 
REMARK   11  A    between atoms: C14_21  and  C15_22 
REMARK       I    between atoms: C21_28  and  N4_30 
REMARK   12  A    between atoms: N4_30  and  C22_32 
REMARK   13  A    between atoms: C23_33  and  O4_34 
REMARK   14  A    between atoms: C31_43  and  C32_44 
ROOT
HETATM    1  N1  MK1 B 902       8.807  24.033   2.949  1.00 28.25     0.096 N 
HETATM    2  C1  MK1 B 902       9.061  24.263   4.397  1.00 30.30     0.307 C 
HETATM    3  C2  MK1 B 902      10.262  25.058   4.870  1.00 27.27     0.200 C 
HETATM    4  N3  MK1 B 902      11.400  24.273   4.275  1.00 28.91    -0.395 N 
HETATM    5  C8  MK1 B 902      11.263  23.743   2.895  1.00 26.24     0.148 C 
HETATM    6  C9  MK1 B 902       9.884  23.301   2.449  1.00 27.47     0.292 C 
ENDROOT
BRANCH   1   7
HETATM    7  C31 MK1 B 902       7.485  23.517   2.572  1.00 36.25     0.312 C 
BRANCH   7   8
HETATM    8  C32 MK1 B 902       6.211  23.995   3.277  1.00 42.75    -0.015 A 
HETATM    9  C36 MK1 B 902       5.390  23.038   3.834  1.00 44.71     0.011 A 
HETATM   10  C35 MK1 B 902       4.221  23.465   4.458  1.00 49.34     0.018 A 
HETATM   11  C34 MK1 B 902       3.911  24.828   4.502  1.00 50.60     0.087 A 
HETATM   12  N5  MK1 B 902       4.683  25.857   3.965  1.00 51.38    -0.375 N 
HETATM   13  C33 MK1 B 902       5.841  25.346   3.356  1.00 47.41     0.096 A 
HETATM   14  H5  MK1 B 902       4.440  26.847   4.008  1.00  0.00     0.164 HD
ENDBRANCH   7   8
ENDBRANCH   1   7
BRANCH   3  15
HETATM   15  C3  MK1 B 902      10.268  25.057   6.374  1.00 28.85     0.242 C 
HETATM   16  O1  MK1 B 902      10.417  24.010   6.992  1.00 29.59    -0.271 OA
HETATM   17  N2  MK1 B 902      10.094  26.218   6.974  1.00 22.29    -0.351 N 
HETATM   18  H2  MK1 B 902       9.913  27.002   6.346  1.00  0.00     0.163 HD
BRANCH  17  19
HETATM   19  C4  MK1 B 902      10.117  26.555   8.361  1.00 23.47     0.022 C 
HETATM   20  C7  MK1 B 902       9.055  25.908   9.139  1.00 22.75     0.037 C 
HETATM   21  C5  MK1 B 902       9.809  28.060   8.464  1.00 27.66     0.037 C 
HETATM   22  C6  MK1 B 902      11.325  26.267   8.976  1.00 21.71     0.037 C 
ENDBRANCH  17  19
ENDBRANCH   3  15
BRANCH   4  23
HETATM   23  C10 MK1 B 902      12.739  24.800   4.448  1.00 20.86     0.149 C 
BRANCH  23  24
HETATM   24  C11 MK1 B 902      13.664  23.900   5.269  1.00 21.68     0.136 C 
BRANCH  24  25
HETATM   25  O2  MK1 B 902      13.858  24.824   6.298  1.00 15.87    -0.394 OA
HETATM   26  H2  MK1 B 902      13.024  25.241   6.479  1.00  0.00     0.210 HD
ENDBRANCH  24  25
BRANCH  24  27
HETATM   27  C12 MK1 B 902      13.232  22.565   5.903  1.00 21.49     0.047 C 
BRANCH  27  28
HETATM   28  C13 MK1 B 902      14.269  21.477   6.217  1.00 26.89     0.084 C 
BRANCH  28  29
HETATM   29  C21 MK1 B 902      14.932  21.691   7.572  1.00 29.35     0.222 C 
HETATM   30  N4  MK1 B 902      15.811  20.758   7.930  1.00 31.19    -0.350 N 
HETATM   31  H4  MK1 B 902      15.822  19.867   7.434  1.00  0.00     0.163 HD
HETATM   32  O3  MK1 B 902      14.730  22.731   8.217  1.00 32.66    -0.273 OA
BRANCH  30  33
HETATM   33  C22 MK1 B 902      16.755  20.978   9.013  1.00 29.22     0.147 C 
HETATM   34  C30 MK1 B 902      17.152  19.770   9.902  1.00 31.86    -0.027 A 
HETATM   35  C29 MK1 B 902      16.464  18.703  10.386  1.00 27.70     0.010 A 
HETATM   36  C25 MK1 B 902      18.656  19.835  10.294  1.00 31.29    -0.047 A 
HETATM   37  C28 MK1 B 902      17.075  17.738  11.174  1.00 29.01     0.001 A 
HETATM   38  C27 MK1 B 902      18.436  17.800  11.510  1.00 28.00     0.001 A 
HETATM   39  C26 MK1 B 902      19.237  18.858  11.068  1.00 32.00     0.008 A 
HETATM   40  C24 MK1 B 902      19.092  21.092   9.583  1.00 32.05     0.073 C 
HETATM   41  C23 MK1 B 902      18.101  21.465   8.504  1.00 28.82     0.149 C 
BRANCH  41  42
HETATM   42  O4  MK1 B 902      18.386  20.888   7.237  1.00 28.32    -0.393 OA
HETATM   43  H4  MK1 B 902      18.082  19.988   7.210  1.00  0.00     0.210 HD
ENDBRANCH  41  42
ENDBRANCH  30  33
ENDBRANCH  28  29
BRANCH  28  44
HETATM   44  C14 MK1 B 902      15.361  21.385   5.137  1.00 28.67     0.052 C 
BRANCH  44  45
HETATM   45  C15 MK1 B 902      15.207  20.186   4.275  1.00 26.89    -0.057 A 
HETATM   46  C16 MK1 B 902      14.995  20.273   2.897  1.00 29.22     0.007 A 
HETATM   47  C17 MK1 B 902      14.820  19.128   2.135  1.00 29.22     0.001 A 
HETATM   48  C18 MK1 B 902      14.857  17.885   2.771  1.00 30.97     0.000 A 
HETATM   49  C19 MK1 B 902      15.077  17.793   4.151  1.00 29.25     0.001 A 
HETATM   50  C20 MK1 B 902      15.252  18.954   4.904  1.00 29.96     0.007 A 
ENDBRANCH  44  45
ENDBRANCH  28  44
ENDBRANCH  27  28
ENDBRANCH  24  27
ENDBRANCH  23  24
ENDBRANCH   4  23
TORSDOF 14
ENDMDL
MODEL 3
REMARK VINA RESULT:     -10.4      2.040     10.242
REMARK  14 active torsions:
REMARK  status: ('A' for Active; 'I' for Inactive)
REMARK    1  A    between atoms: N1_1  and  C31_43 
REMARK    2  A    between atoms: C2_3  and  C3_4 
REMARK       I    between atoms: C3_4  and  N2_6 
REMARK    3  A    between atoms: N2_6  and  C4_8 
REMARK    4  A    between atoms: N3_12  and  C10_15 
REMARK    5  A    between atoms: C10_15  and  C11_16 
REMARK    6  A    between atoms: C11_16  and  O2_17 
REMARK    7  A    between atoms: C11_16  and  C12_19 
REMARK    8  A    between atoms: C12_19  and  C13_20 
REMARK    9  A    between atoms: C13_20  and  C21_28 
REMARK   10  A    between atoms: C13_20  and  C14_21 
REMARK   11  A    between atoms: C14_21  and  C15_22 
REMARK       I    between atoms: C21_28  and  N4_30 
REMARK   12  A    between atoms: N4_30  and  C22_32 
REMARK   13  A    between atoms: C23_33  and  O4_34 
REMARK   14  A    between atoms: C31_43  and  C32_44 
ROOT
HETATM    1  N1  MK1 B 902      16.529  21.382   8.956  1.00 28.25     0.096 N 
HETATM    2  C1  MK1 B 902      16.127  20.535   7.801  1.00 30.30     0.307 C 
HETATM    3  C2  MK1 B 902      16.212  21.051   6.378  1.00 27.27     0.200 C 
HETATM    4  N3  MK1 B 902      15.331  22.269   6.442  1.00 28.91    -0.395 N 
HETATM    5  C8  MK1 B 902      15.407  23.148   7.636  1.00 26.24     0.148 C 
HETATM    6  C9  MK1 B 902      15.682  22.490   8.973  1.00 27.47     0.292 C 
ENDROOT
BRANCH   1   7
HETATM    7  C31 MK1 B 902      16.694  20.716  10.253  1.00 36.25     0.312 C 
BRANCH   7   8
HETATM    8  C32 MK1 B 902      17.227  19.281  10.352  1.00 42.75    -0.015 A 
HETATM    9  C36 MK1 B 902      18.554  19.069  10.043  1.00 44.71     0.011 A 
HETATM   10  C35 MK1 B 902      19.039  17.766  10.111  1.00 49.34     0.018 A 
HETATM   11  C34 MK1 B 902      18.184  16.723  10.481  1.00 50.60     0.087 A 
HETATM   12  N5  MK1 B 902      16.835  16.850  10.807  1.00 51.38    -0.375 N 
HETATM   13  C33 MK1 B 902      16.425  18.190  10.716  1.00 47.41     0.096 A 
HETATM   14  H5  MK1 B 902      16.228  16.076  11.076  1.00  0.00     0.164 HD
ENDBRANCH   7   8
ENDBRANCH   1   7
BRANCH   3  15
HETATM   15  C3  MK1 B 902      15.681  19.987   5.456  1.00 28.85     0.242 C 
HETATM   16  O1  MK1 B 902      14.644  19.395   5.727  1.00 29.59    -0.271 OA
HETATM   17  N2  MK1 B 902      16.388  19.726   4.374  1.00 22.29    -0.351 N 
HETATM   18  H2  MK1 B 902      17.265  20.241   4.301  1.00  0.00     0.163 HD
BRANCH  17  19
HETATM   19  C4  MK1 B 902      16.122  18.838   3.287  1.00 23.47     0.022 C 
HETATM   20  C7  MK1 B 902      15.575  17.544   3.709  1.00 22.75     0.037 C 
HETATM   21  C5  MK1 B 902      17.479  18.494   2.646  1.00 27.66     0.037 C 
HETATM   22  C6  MK1 B 902      15.262  19.371   2.341  1.00 21.71     0.037 C 
ENDBRANCH  17  19
ENDBRANCH   3  15
BRANCH   4  23
HETATM   23  C10 MK1 B 902      15.239  23.093   5.253  1.00 20.86     0.149 C 
BRANCH  23  24
HETATM   24  C11 MK1 B 902      13.850  23.118   4.615  1.00 21.68     0.136 C 
BRANCH  24  25
HETATM   25  O2  MK1 B 902      14.241  22.482   3.435  1.00 15.87    -0.394 OA
HETATM   26  H2  MK1 B 902      14.865  23.045   2.991  1.00  0.00     0.210 HD
ENDBRANCH  24  25
BRANCH  24  27
HETATM   27  C12 MK1 B 902      12.627  22.370   5.176  1.00 21.49     0.047 C 
BRANCH  27  28
HETATM   28  C13 MK1 B 902      11.334  23.126   5.514  1.00 26.89     0.084 C 
BRANCH  28  29
HETATM   29  C21 MK1 B 902      10.278  22.969   4.427  1.00 29.35     0.222 C 
HETATM   30  N4  MK1 B 902       9.724  24.102   4.003  1.00 31.19    -0.350 N 
HETATM   31  H4  MK1 B 902       9.837  24.950   4.558  1.00  0.00     0.163 HD
HETATM   32  O3  MK1 B 902      10.058  21.861   3.915  1.00 32.66    -0.273 OA
BRANCH  30  33
HETATM   33  C22 MK1 B 902       8.960  24.160   2.769  1.00 29.22     0.147 C 
HETATM   34  C30 MK1 B 902       7.420  23.987   2.845  1.00 31.86    -0.027 A 
HETATM   35  C29 MK1 B 902       6.606  23.207   3.604  1.00 27.70     0.010 A 
HETATM   36  C25 MK1 B 902       6.701  24.919   1.828  1.00 31.29    -0.047 A 
HETATM   37  C28 MK1 B 902       5.225  23.251   3.474  1.00 29.01     0.001 A 
HETATM   38  C27 MK1 B 902       4.587  24.105   2.562  1.00 28.00     0.001 A 
HETATM   39  C26 MK1 B 902       5.330  24.949   1.729  1.00 32.00     0.008 A 
HETATM   40  C24 MK1 B 902       7.874  25.632   1.202  1.00 32.05     0.073 C 
HETATM   41  C23 MK1 B 902       9.102  25.503   2.073  1.00 28.82     0.149 C 
BRANCH  41  42
HETATM   42  O4  MK1 B 902       9.240  26.542   3.032  1.00 28.32    -0.393 OA
HETATM   43  H4  MK1 B 902       8.993  26.227   3.894  1.00  0.00     0.210 HD
ENDBRANCH  41  42
ENDBRANCH  30  33
ENDBRANCH  28  29
BRANCH  28  44
HETATM   44  C14 MK1 B 902      11.583  24.626   5.754  1.00 28.67     0.052 C 
BRANCH  44  45
HETATM   45  C15 MK1 B 902      11.243  25.044   7.137  1.00 26.89    -0.057 A 
HETATM   46  C16 MK1 B 902      12.171  25.642   7.992  1.00 29.22     0.007 A 
HETATM   47  C17 MK1 B 902      11.820  25.983   9.289  1.00 29.22     0.001 A 
HETATM   48  C18 MK1 B 902      10.521  25.715   9.727  1.00 30.97     0.000 A 
HETATM   49  C19 MK1 B 902       9.585  25.122   8.871  1.00 29.25     0.001 A 
HETATM   50  C20 MK1 B 902       9.953  24.785   7.568  1.00 29.96     0.007 A 
ENDBRANCH  44  45
ENDBRANCH  28  44
ENDBRANCH  27  28
ENDBRANCH  24  27
ENDBRANCH  23  24
ENDBRANCH   4  23
TORSDOF 14
ENDMDL
MODEL 4
REMARK VINA RESULT:      -9.8      2.430      5.562
REMARK  14 active torsions:
REMARK  status: ('A' for Active; 'I' for Inactive)
REMARK    1  A    between atoms: N1_1  and  C31_43 
REMARK    2  A    between atoms: C2_3  and  C3_4 
REMARK       I    between atoms: C3_4  and  N2_6 
REMARK    3  A    between atoms: N2_6  and  C4_8 
REMARK    4  A    between atoms: N3_12  and  C10_15 
REMARK    5  A    between atoms: C10_15  and  C11_16 
REMARK    6  A    between atoms: C11_16  and  O2_17 
REMARK    7  A    between atoms: C11_16  and  C12_19 
REMARK    8  A    between atoms: C12_19  and  C13_20 
REMARK    9  A    between atoms: C13_20  and  C21_28 
REMARK   10  A    between atoms: C13_20  and  C14_21 
REMARK   11  A    between atoms: C14_21  and  C15_22 
REMARK       I    between atoms: C21_28  and  N4_30 
REMARK   12  A    between atoms: N4_30  and  C22_32 
REMARK   13  A    between atoms: C23_33  and  O4_34 
REMARK   14  A    between atoms: C31_43  and  C32_44 
ROOT
HETATM    1  N1  MK1 B 902      12.649  24.499   4.301  1.00 28.25     0.096 N 
HETATM    2  C1  MK1 B 902      11.981  25.002   5.531  1.00 30.30     0.307 C 
HETATM    3  C2  MK1 B 902      12.758  25.232   6.812  1.00 27.27     0.200 C 
HETATM    4  N3  MK1 B 902      13.333  23.865   7.071  1.00 28.91    -0.395 N 
HETATM    5  C8  MK1 B 902      13.857  23.079   5.926  1.00 26.24     0.148 C 
HETATM    6  C9  MK1 B 902      13.158  23.234   4.591  1.00 27.47     0.292 C 
ENDROOT
BRANCH   1   7
HETATM    7  C31 MK1 B 902      11.896  24.585   3.044  1.00 36.25     0.312 C 
BRANCH   7   8
HETATM    8  C32 MK1 B 902      10.450  24.084   2.944  1.00 42.75    -0.015 A 
HETATM    9  C36 MK1 B 902      10.252  22.726   2.819  1.00 44.71     0.011 A 
HETATM   10  C35 MK1 B 902       8.942  22.266   2.707  1.00 49.34     0.018 A 
HETATM   11  C34 MK1 B 902       7.880  23.176   2.721  1.00 50.60     0.087 A 
HETATM   12  N5  MK1 B 902       7.994  24.560   2.843  1.00 51.38    -0.375 N 
HETATM   13  C33 MK1 B 902       9.341  24.942   2.951  1.00 47.41     0.096 A 
HETATM   14  H5  MK1 B 902       7.205  25.207   2.852  1.00  0.00     0.164 HD
ENDBRANCH   7   8
ENDBRANCH   1   7
BRANCH   3  15
HETATM   15  C3  MK1 B 902      11.794  25.678   7.878  1.00 28.85     0.242 C 
HETATM   16  O1  MK1 B 902      12.164  25.787   9.040  1.00 29.59    -0.271 OA
HETATM   17  N2  MK1 B 902      10.556  25.923   7.499  1.00 22.29    -0.351 N 
HETATM   18  H2  MK1 B 902      10.361  25.729   6.516  1.00  0.00     0.163 HD
BRANCH  17  19
HETATM   19  C4  MK1 B 902       9.442  26.419   8.243  1.00 23.47     0.022 C 
HETATM   20  C7  MK1 B 902       8.278  26.739   7.411  1.00 22.75     0.037 C 
HETATM   21  C5  MK1 B 902       9.870  27.769   8.847  1.00 27.66     0.037 C 
HETATM   22  C6  MK1 B 902       9.021  25.555   9.242  1.00 21.71     0.037 C 
ENDBRANCH  17  19
ENDBRANCH   3  15
BRANCH   4  23
HETATM   23  C10 MK1 B 902      14.232  23.719   8.197  1.00 20.86     0.149 C 
BRANCH  23  24
HETATM   24  C11 MK1 B 902      15.518  22.955   7.876  1.00 21.68     0.136 C 
BRANCH  24  25
HETATM   25  O2  MK1 B 902      16.368  24.040   8.101  1.00 15.87    -0.394 OA
HETATM   26  H2  MK1 B 902      17.248  23.779   7.856  1.00  0.00     0.210 HD
ENDBRANCH  24  25
BRANCH  24  27
HETATM   27  C12 MK1 B 902      16.043  21.762   8.697  1.00 21.49     0.047 C 
BRANCH  27  28
HETATM   28  C13 MK1 B 902      16.500  20.474   7.997  1.00 26.89     0.084 C 
BRANCH  28  29
HETATM   29  C21 MK1 B 902      17.594  19.755   8.778  1.00 29.35     0.222 C 
HETATM   30  N4  MK1 B 902      17.167  18.956   9.752  1.00 31.19    -0.350 N 
HETATM   31  H4  MK1 B 902      16.206  19.041  10.081  1.00  0.00     0.163 HD
HETATM   32  O3  MK1 B 902      18.780  19.843   8.428  1.00 32.66    -0.273 OA
BRANCH  30  33
HETATM   33  C22 MK1 B 902      18.039  17.965  10.360  1.00 29.22     0.147 C 
HETATM   34  C30 MK1 B 902      18.778  18.337  11.672  1.00 31.86    -0.027 A 
HETATM   35  C29 MK1 B 902      19.350  19.483  12.126  1.00 27.70     0.010 A 
HETATM   36  C25 MK1 B 902      18.853  17.119  12.636  1.00 31.29    -0.047 A 
HETATM   37  C28 MK1 B 902      19.956  19.551  13.374  1.00 29.01     0.001 A 
HETATM   38  C27 MK1 B 902      20.006  18.449  14.241  1.00 28.00     0.001 A 
HETATM   39  C26 MK1 B 902      19.450  17.219  13.871  1.00 32.00     0.008 A 
HETATM   40  C24 MK1 B 902      18.119  16.068  11.841  1.00 32.05     0.073 C 
HETATM   41  C23 MK1 B 902      17.283  16.708  10.757  1.00 28.82     0.149 C 
BRANCH  41  42
HETATM   42  O4  MK1 B 902      15.963  17.037  11.165  1.00 28.32    -0.393 OA
HETATM   43  H4  MK1 B 902      15.986  17.657  11.884  1.00  0.00     0.210 HD
ENDBRANCH  41  42
ENDBRANCH  30  33
ENDBRANCH  28  29
BRANCH  28  44
HETATM   44  C14 MK1 B 902      16.999  20.734   6.565  1.00 28.67     0.052 C 
BRANCH  44  45
HETATM   45  C15 MK1 B 902      16.629  19.643   5.629  1.00 26.89    -0.057 A 
HETATM   46  C16 MK1 B 902      15.312  19.211   5.458  1.00 29.22     0.007 A 
HETATM   47  C17 MK1 B 902      15.017  18.163   4.599  1.00 29.22     0.001 A 
HETATM   48  C18 MK1 B 902      16.062  17.546   3.908  1.00 30.97     0.000 A 
HETATM   49  C19 MK1 B 902      17.383  17.980   4.070  1.00 29.25     0.001 A 
HETATM   50  C20 MK1 B 902      17.664  19.036   4.937  1.00 29.96     0.007 A 
ENDBRANCH  44  45
ENDBRANCH  28  44
ENDBRANCH  27  28
ENDBRANCH  24  27
ENDBRANCH  23  24
ENDBRANCH   4  23
TORSDOF 14
ENDMDL
MODEL 5
REMARK VINA RESULT:      -9.8      2.166     10.620
REMARK  14 active torsions:
REMARK  status: ('A' for Active; 'I' for Inactive)
REMARK    1  A    between atoms: N1_1  and  C31_43 
REMARK    2  A    between atoms: C2_3  and  C3_4 
REMARK       I    between atoms: C3_4  and  N2_6 
REMARK    3  A    between atoms: N2_6  and  C4_8 
REMARK    4  A    between atoms: N3_12  and  C10_15 
REMARK    5  A    between atoms: C10_15  and  C11_16 
REMARK    6  A    between atoms: C11_16  and  O2_17 
REMARK    7  A    between atoms: C11_16  and  C12_19 
REMARK    8  A    between atoms: C12_19  and  C13_20 
REMARK    9  A    between atoms: C13_20  and  C21_28 
REMARK   10  A    between atoms: C13_20  and  C14_21 
REMARK   11  A    between atoms: C14_21  and  C15_22 
REMARK       I    between atoms: C21_28  and  N4_30 
REMARK   12  A    between atoms: N4_30  and  C22_32 
REMARK   13  A    between atoms: C23_33  and  O4_34 
REMARK   14  A    between atoms: C31_43  and  C32_44 
ROOT
HETATM    1  N1  MK1 B 902      15.292  23.158   7.256  1.00 28.25     0.096 N 
HETATM    2  C1  MK1 B 902      15.396  22.173   6.146  1.00 30.30     0.307 C 
HETATM    3  C2  MK1 B 902      14.558  22.308   4.891  1.00 27.27     0.200 C 
HETATM    4  N3  MK1 B 902      13.162  22.292   5.453  1.00 28.91    -0.395 N 
HETATM    5  C8  MK1 B 902      12.884  23.037   6.706  1.00 26.24     0.148 C 
HETATM    6  C9  MK1 B 902      13.987  23.101   7.743  1.00 27.47     0.292 C 
ENDROOT
BRANCH   1   7
HETATM    7  C31 MK1 B 902      16.336  23.121   8.288  1.00 36.25     0.312 C 
BRANCH   7   8
HETATM    8  C32 MK1 B 902      16.914  21.793   8.791  1.00 42.75    -0.015 A 
HETATM    9  C36 MK1 B 902      18.270  21.592   8.650  1.00 44.71     0.011 A 
HETATM   10  C35 MK1 B 902      18.799  20.380   9.087  1.00 49.34     0.018 A 
HETATM   11  C34 MK1 B 902      17.956  19.413   9.644  1.00 50.60     0.087 A 
HETATM   12  N5  MK1 B 902      16.579  19.536   9.822  1.00 51.38    -0.375 N 
HETATM   13  C33 MK1 B 902      16.126  20.782   9.359  1.00 47.41     0.096 A 
HETATM   14  H5  MK1 B 902      15.982  18.818  10.233  1.00  0.00     0.164 HD
ENDBRANCH   7   8
ENDBRANCH   1   7
BRANCH   3  15
HETATM   15  C3  MK1 B 902      14.847  21.131   3.999  1.00 28.85     0.242 C 
HETATM   16  O1  MK1 B 902      14.393  21.091   2.862  1.00 29.59    -0.271 OA
HETATM   17  N2  MK1 B 902      15.588  20.165   4.504  1.00 22.29    -0.351 N 
HETATM   18  H2  MK1 B 902      15.846  20.290   5.484  1.00  0.00     0.163 HD
BRANCH  17  19
HETATM   19  C4  MK1 B 902      16.088  18.971   3.902  1.00 23.47     0.022 C 
HETATM   20  C7  MK1 B 902      15.948  18.949   2.442  1.00 22.75     0.037 C 
HETATM   21  C5  MK1 B 902      15.200  17.813   4.393  1.00 27.66     0.037 C 
HETATM   22  C6  MK1 B 902      17.417  18.720   4.201  1.00 21.71     0.037 C 
ENDBRANCH  17  19
ENDBRANCH   3  15
BRANCH   4  23
HETATM   23  C10 MK1 B 902      12.065  22.495   4.528  1.00 20.86     0.149 C 
BRANCH  23  24
HETATM   24  C11 MK1 B 902      12.071  23.860   3.839  1.00 21.68     0.136 C 
BRANCH  24  25
HETATM   25  O2  MK1 B 902      12.290  23.354   2.557  1.00 15.87    -0.394 OA
HETATM   26  H2  MK1 B 902      12.473  22.425   2.635  1.00  0.00     0.210 HD
ENDBRANCH  24  25
BRANCH  24  27
HETATM   27  C12 MK1 B 902      10.855  24.803   3.777  1.00 21.49     0.047 C 
BRANCH  27  28
HETATM   28  C13 MK1 B 902       9.642  24.576   4.691  1.00 26.89     0.084 C 
BRANCH  28  29
HETATM   29  C21 MK1 B 902       8.557  23.752   4.008  1.00 29.35     0.222 C 
HETATM   30  N4  MK1 B 902       7.395  24.374   3.832  1.00 31.19    -0.350 N 
HETATM   31  H4  MK1 B 902       7.207  25.233   4.350  1.00  0.00     0.163 HD
HETATM   32  O3  MK1 B 902       8.810  22.625   3.556  1.00 32.66    -0.273 OA
BRANCH  30  33
HETATM   33  C22 MK1 B 902       6.386  23.861   2.922  1.00 29.22     0.147 C 
HETATM   34  C30 MK1 B 902       4.892  24.110   3.258  1.00 31.86    -0.027 A 
HETATM   35  C29 MK1 B 902       4.190  24.128   4.421  1.00 27.70     0.010 A 
HETATM   36  C25 MK1 B 902       4.068  24.393   1.970  1.00 31.29    -0.047 A 
HETATM   37  C28 MK1 B 902       2.827  24.390   4.446  1.00 29.01     0.001 A 
HETATM   38  C27 MK1 B 902       2.096  24.658   3.279  1.00 28.00     0.001 A 
HETATM   39  C26 MK1 B 902       2.720  24.660   2.026  1.00 32.00     0.008 A 
HETATM   40  C24 MK1 B 902       5.141  24.321   0.912  1.00 32.05     0.073 C 
HETATM   41  C23 MK1 B 902       6.512  24.464   1.533  1.00 28.82     0.149 C 
BRANCH  41  42
HETATM   42  O4  MK1 B 902       6.968  25.806   1.619  1.00 28.32    -0.393 OA
HETATM   43  H4  MK1 B 902       7.404  25.953   2.451  1.00  0.00     0.210 HD
ENDBRANCH  41  42
ENDBRANCH  30  33
ENDBRANCH  28  29
BRANCH  28  44
HETATM   44  C14 MK1 B 902       9.028  25.897   5.183  1.00 28.67     0.052 C 
BRANCH  44  45
HETATM   45  C15 MK1 B 902       9.461  26.247   6.560  1.00 26.89    -0.057 A 
HETATM   46  C16 MK1 B 902       9.257  27.512   7.114  1.00 29.22     0.007 A 
HETATM   47  C17 MK1 B 902       9.712  27.805   8.391  1.00 29.22     0.001 A 
HETATM   48  C18 MK1 B 902      10.379  26.813   9.112  1.00 30.97     0.000 A 
HETATM   49  C19 MK1 B 902      10.579  25.540   8.563  1.00 29.25     0.001 A 
HETATM   50  C20 MK1 B 902      10.115  25.260   7.278  1.00 29.96     0.007 A 
ENDBRANCH  44  45
ENDBRANCH  28  44
ENDBRANCH  27  28
ENDBRANCH  24  27
ENDBRANCH  23  24
ENDBRANCH   4  23
TORSDOF 14
ENDMDL
MODEL 6
REMARK VINA RESULT:      -9.6      1.943     10.688
REMARK  14 active torsions:
REMARK  status: ('A' for Active; 'I' for Inactive)
REMARK    1  A    between atoms: N1_1  and  C31_43 
REMARK    2  A    between atoms: C2_3  and  C3_4 
REMARK       I    between atoms: C3_4  and  N2_6 
REMARK    3  A    between atoms: N2_6  and  C4_8 
REMARK    4  A    between atoms: N3_12  and  C10_15 
REMARK    5  A    between atoms: C10_15  and  C11_16 
REMARK    6  A    between atoms: C11_16  and  O2_17 
REMARK    7  A    between atoms: C11_16  and  C12_19 
REMARK    8  A    between atoms: C12_19  and  C13_20 
REMARK    9  A    between atoms: C13_20  and  C21_28 
REMARK   10  A    between atoms: C13_20  and  C14_21 
REMARK   11  A    between atoms: C14_21  and  C15_22 
REMARK       I    between atoms: C21_28  and  N4_30 
REMARK   12  A    between atoms: N4_30  and  C22_32 
REMARK   13  A    between atoms: C23_33  and  O4_34 
REMARK   14  A    between atoms: C31_43  and  C32_44 
ROOT
HETATM    1  N1  MK1 B 902      15.923  21.336   8.623  1.00 28.25     0.096 N 
HETATM    2  C1  MK1 B 902      16.349  20.441   7.513  1.00 30.30     0.307 C 
HETATM    3  C2  MK1 B 902      16.702  20.993   6.146  1.00 27.27     0.200 C 
HETATM    4  N3  MK1 B 902      15.430  21.701   5.765  1.00 28.91    -0.395 N 
HETATM    5  C8  MK1 B 902      14.704  22.480   6.800  1.00 26.24     0.148 C 
HETATM    6  C9  MK1 B 902      14.742  21.961   8.223  1.00 27.47     0.292 C 
ENDROOT
BRANCH   1   7
HETATM    7  C31 MK1 B 902      15.887  20.762   9.973  1.00 36.25     0.312 C 
BRANCH   7   8
HETATM    8  C32 MK1 B 902      16.811  19.605  10.374  1.00 42.75    -0.015 A 
HETATM    9  C36 MK1 B 902      18.161  19.867  10.465  1.00 44.71     0.011 A 
HETATM   10  C35 MK1 B 902      19.007  18.816  10.809  1.00 49.34     0.018 A 
HETATM   11  C34 MK1 B 902      18.478  17.544  11.046  1.00 50.60     0.087 A 
HETATM   12  N5  MK1 B 902      17.130  17.195  10.975  1.00 51.38    -0.375 N 
HETATM   13  C33 MK1 B 902      16.345  18.306  10.625  1.00 47.41     0.096 A 
HETATM   14  H5  MK1 B 902      16.763  16.260  11.153  1.00  0.00     0.164 HD
ENDBRANCH   7   8
ENDBRANCH   1   7
BRANCH   3  15
HETATM   15  C3  MK1 B 902      17.029  19.838   5.239  1.00 28.85     0.242 C 
HETATM   16  O1  MK1 B 902      18.145  19.735   4.747  1.00 29.59    -0.271 OA
HETATM   17  N2  MK1 B 902      16.063  18.974   4.999  1.00 22.29    -0.351 N 
HETATM   18  H2  MK1 B 902      15.162  19.212   5.415  1.00  0.00     0.163 HD
BRANCH  17  19
HETATM   19  C4  MK1 B 902      16.075  17.758   4.250  1.00 23.47     0.022 C 
HETATM   20  C7  MK1 B 902      14.855  16.959   4.411  1.00 22.75     0.037 C 
HETATM   21  C5  MK1 B 902      17.194  16.879   4.838  1.00 27.66     0.037 C 
HETATM   22  C6  MK1 B 902      16.276  17.951   2.892  1.00 21.71     0.037 C 
ENDBRANCH  17  19
ENDBRANCH   3  15
BRANCH   4  23
HETATM   23  C10 MK1 B 902      15.423  22.444   4.521  1.00 20.86     0.149 C 
BRANCH  23  24
HETATM   24  C11 MK1 B 902      14.197  22.185   3.644  1.00 21.68     0.136 C 
BRANCH  24  25
HETATM   25  O2  MK1 B 902      14.538  20.867   3.336  1.00 15.87    -0.394 OA
HETATM   26  H2  MK1 B 902      14.817  20.441   4.138  1.00  0.00     0.210 HD
ENDBRANCH  24  25
BRANCH  24  27
HETATM   27  C12 MK1 B 902      12.747  22.193   4.161  1.00 21.49     0.047 C 
BRANCH  27  28
HETATM   28  C13 MK1 B 902      11.787  23.329   3.780  1.00 26.89     0.084 C 
BRANCH  28  29
HETATM   29  C21 MK1 B 902      12.030  24.586   4.606  1.00 29.35     0.222 C 
HETATM   30  N4  MK1 B 902      11.071  24.890   5.477  1.00 31.19    -0.350 N 
HETATM   31  H4  MK1 B 902      10.158  24.443   5.389  1.00  0.00     0.163 HD
HETATM   32  O3  MK1 B 902      13.108  25.194   4.530  1.00 32.66    -0.273 OA
BRANCH  30  33
HETATM   33  C22 MK1 B 902      11.292  25.843   6.551  1.00 29.22     0.147 C 
HETATM   34  C30 MK1 B 902      10.086  26.678   7.057  1.00 31.86    -0.027 A 
HETATM   35  C29 MK1 B 902       9.021  27.248   6.434  1.00 27.70     0.010 A 
HETATM   36  C25 MK1 B 902      10.150  26.877   8.598  1.00 31.29    -0.047 A 
HETATM   37  C28 MK1 B 902       8.056  27.955   7.140  1.00 29.01     0.001 A 
HETATM   38  C27 MK1 B 902       8.118  28.115   8.532  1.00 28.00     0.001 A 
HETATM   39  C26 MK1 B 902       9.174  27.573   9.272  1.00 32.00     0.008 A 
HETATM   40  C24 MK1 B 902      11.405  26.113   8.941  1.00 32.05     0.073 C 
HETATM   41  C23 MK1 B 902      11.776  25.167   7.822  1.00 28.82     0.149 C 
BRANCH  41  42
HETATM   42  O4  MK1 B 902      11.197  23.876   7.944  1.00 28.32    -0.393 OA
HETATM   43  H4  MK1 B 902      10.480  23.895   8.567  1.00  0.00     0.210 HD
ENDBRANCH  41  42
ENDBRANCH  30  33
ENDBRANCH  28  29
BRANCH  28  44
HETATM   44  C14 MK1 B 902      10.311  22.918   3.922  1.00 28.67     0.052 C 
BRANCH  44  45
HETATM   45  C15 MK1 B 902       9.395  23.828   3.190  1.00 26.89    -0.057 A 
HETATM   46  C16 MK1 B 902       9.839  24.705   2.198  1.00 29.22     0.007 A 
HETATM   47  C17 MK1 B 902       8.953  25.564   1.565  1.00 29.22     0.001 A 
HETATM   48  C18 MK1 B 902       7.608  25.537   1.940  1.00 30.97     0.000 A 
HETATM   49  C19 MK1 B 902       7.157  24.654   2.928  1.00 29.25     0.001 A 
HETATM   50  C20 MK1 B 902       8.060  23.796   3.554  1.00 29.96     0.007 A 
ENDBRANCH  44  45
ENDBRANCH  28  44
ENDBRANCH  27  28
ENDBRANCH  24  27
ENDBRANCH  23  24
ENDBRANCH   4  23
TORSDOF 14
ENDMDL
MODEL 7
REMARK VINA RESULT:      -9.6      2.054     10.255
REMARK  14 active torsions:
REMARK  status: ('A' for Active; 'I' for Inactive)
REMARK    1  A    between atoms: N1_1  and  C31_43 
REMARK    2  A    between atoms: C2_3  and  C3_4 
REMARK       I    between atoms: C3_4  and  N2_6 
REMARK    3  A    between atoms: N2_6  and  C4_8 
REMARK    4  A    between atoms: N3_12  and  C10_15 
REMARK    5  A    between atoms: C10_15  and  C11_16 
REMARK    6  A    between atoms: C11_16  and  O2_17 
REMARK    7  A    between atoms: C11_16  and  C12_19 
REMARK    8  A    between atoms: C12_19  and  C13_20 
REMARK    9  A    between atoms: C13_20  and  C21_28 
REMARK   10  A    between atoms: C13_20  and  C14_21 
REMARK   11  A    between atoms: C14_21  and  C15_22 
REMARK       I    between atoms: C21_28  and  N4_30 
REMARK   12  A    between atoms: N4_30  and  C22_32 
REMARK   13  A    between atoms: C23_33  and  O4_34 
REMARK   14  A    between atoms: C31_43  and  C32_44 
ROOT
HETATM    1  N1  MK1 B 902      14.526  19.663   3.817  1.00 28.25     0.096 N 
HETATM    2  C1  MK1 B 902      14.897  20.117   5.183  1.00 30.30     0.307 C 
HETATM    3  C2  MK1 B 902      14.220  21.310   5.829  1.00 27.27     0.200 C 
HETATM    4  N3  MK1 B 902      14.513  22.402   4.836  1.00 28.91    -0.395 N 
HETATM    5  C8  MK1 B 902      14.423  22.096   3.386  1.00 26.24     0.148 C 
HETATM    6  C9  MK1 B 902      14.820  20.704   2.938  1.00 27.47     0.292 C 
ENDROOT
BRANCH   1   7
HETATM    7  C31 MK1 B 902      15.011  18.344   3.392  1.00 36.25     0.312 C 
BRANCH   7   8
HETATM    8  C32 MK1 B 902      16.379  17.815   3.838  1.00 42.75    -0.015 A 
HETATM    9  C36 MK1 B 902      17.467  18.102   3.043  1.00 44.71     0.011 A 
HETATM   10  C35 MK1 B 902      18.709  17.607   3.433  1.00 49.34     0.018 A 
HETATM   11  C34 MK1 B 902      18.819  16.842   4.598  1.00 50.60     0.087 A 
HETATM   12  N5  MK1 B 902      17.773  16.507   5.456  1.00 51.38    -0.375 N 
HETATM   13  C33 MK1 B 902      16.559  17.042   4.995  1.00 47.41     0.096 A 
HETATM   14  H5  MK1 B 902      17.875  15.948   6.303  1.00  0.00     0.164 HD
ENDBRANCH   7   8
ENDBRANCH   1   7
BRANCH   3  15
HETATM   15  C3  MK1 B 902      14.857  21.547   7.171  1.00 28.85     0.242 C 
HETATM   16  O1  MK1 B 902      14.221  22.076   8.073  1.00 29.59    -0.271 OA
HETATM   17  N2  MK1 B 902      16.115  21.175   7.311  1.00 22.29    -0.351 N 
HETATM   18  H2  MK1 B 902      16.550  20.809   6.464  1.00  0.00     0.163 HD
BRANCH  17  19
HETATM   19  C4  MK1 B 902      16.965  21.200   8.458  1.00 23.47     0.022 C 
HETATM   20  C7  MK1 B 902      17.288  22.555   8.918  1.00 22.75     0.037 C 
HETATM   21  C5  MK1 B 902      18.317  20.604   8.029  1.00 27.66     0.037 C 
HETATM   22  C6  MK1 B 902      16.450  20.501   9.538  1.00 21.71     0.037 C 
ENDBRANCH  17  19
ENDBRANCH   3  15
BRANCH   4  23
HETATM   23  C10 MK1 B 902      13.930  23.705   5.082  1.00 20.86     0.149 C 
BRANCH  23  24
HETATM   24  C11 MK1 B 902      12.436  23.671   5.410  1.00 21.68     0.136 C 
BRANCH  24  25
HETATM   25  O2  MK1 B 902      12.565  24.298   6.651  1.00 15.87    -0.394 OA
HETATM   26  H2  MK1 B 902      12.009  23.840   7.270  1.00  0.00     0.210 HD
ENDBRANCH  24  25
BRANCH  24  27
HETATM   27  C12 MK1 B 902      11.357  24.422   4.608  1.00 21.49     0.047 C 
BRANCH  27  28
HETATM   28  C13 MK1 B 902       9.895  24.421   5.074  1.00 26.89     0.084 C 
BRANCH  28  29
HETATM   29  C21 MK1 B 902       8.988  23.657   4.117  1.00 29.35     0.222 C 
HETATM   30  N4  MK1 B 902       7.758  24.146   3.984  1.00 31.19    -0.350 N 
HETATM   31  H4  MK1 B 902       7.413  24.818   4.669  1.00  0.00     0.163 HD
HETATM   32  O3  MK1 B 902       9.434  22.719   3.439  1.00 32.66    -0.273 OA
BRANCH  30  33
HETATM   33  C22 MK1 B 902       6.895  23.744   2.887  1.00 29.22     0.147 C 
HETATM   34  C30 MK1 B 902       5.377  23.580   3.164  1.00 31.86    -0.027 A 
HETATM   35  C29 MK1 B 902       4.670  23.105   4.223  1.00 27.70     0.010 A 
HETATM   36  C25 MK1 B 902       4.531  24.073   1.956  1.00 31.29    -0.047 A 
HETATM   37  C28 MK1 B 902       3.282  23.072   4.217  1.00 29.01     0.001 A 
HETATM   38  C27 MK1 B 902       2.528  23.533   3.127  1.00 28.00     0.001 A 
HETATM   39  C26 MK1 B 902       3.156  24.039   1.983  1.00 32.00     0.008 A 
HETATM   40  C24 MK1 B 902       5.610  24.539   1.011  1.00 32.05     0.073 C 
HETATM   41  C23 MK1 B 902       6.910  24.754   1.751  1.00 28.82     0.149 C 
BRANCH  41  42
HETATM   42  O4  MK1 B 902       7.070  26.068   2.264  1.00 28.32    -0.393 OA
HETATM   43  H4  MK1 B 902       7.126  26.695   1.552  1.00  0.00     0.210 HD
ENDBRANCH  41  42
ENDBRANCH  30  33
ENDBRANCH  28  29
BRANCH  28  44
HETATM   44  C14 MK1 B 902       9.340  25.845   5.255  1.00 28.67     0.052 C 
BRANCH  44  45
HETATM   45  C15 MK1 B 902       9.349  26.283   6.673  1.00 26.89    -0.057 A 
HETATM   46  C16 MK1 B 902       9.233  27.623   7.048  1.00 29.22     0.007 A 
HETATM   47  C17 MK1 B 902       9.283  27.990   8.384  1.00 29.22     0.001 A 
HETATM   48  C18 MK1 B 902       9.454  26.995   9.349  1.00 30.97     0.000 A 
HETATM   49  C19 MK1 B 902       9.563  25.649   8.978  1.00 29.25     0.001 A 
HETATM   50  C20 MK1 B 902       9.510  25.295   7.630  1.00 29.96     0.007 A 
ENDBRANCH  44  45
ENDBRANCH  28  44
ENDBRANCH  27  28
ENDBRANCH  24  27
ENDBRANCH  23  24
ENDBRANCH   4  23
TORSDOF 14
ENDMDL
MODEL 8
REMARK VINA RESULT:      -9.4      1.703      2.754
REMARK  14 active torsions:
REMARK  status: ('A' for Active; 'I' for Inactive)
REMARK    1  A    between atoms: N1_1  and  C31_43 
REMARK    2  A    between atoms: C2_3  and  C3_4 
REMARK       I    between atoms: C3_4  and  N2_6 
REMARK    3  A    between atoms: N2_6  and  C4_8 
REMARK    4  A    between atoms: N3_12  and  C10_15 
REMARK    5  A    between atoms: C10_15  and  C11_16 
REMARK    6  A    between atoms: C11_16  and  O2_17 
REMARK    7  A    between atoms: C11_16  and  C12_19 
REMARK    8  A    between atoms: C12_19  and  C13_20 
REMARK    9  A    between atoms: C13_20  and  C21_28 
REMARK   10  A    between atoms: C13_20  and  C14_21 
REMARK   11  A    between atoms: C14_21  and  C15_22 
REMARK       I    between atoms: C21_28  and  N4_30 
REMARK   12  A    between atoms: N4_30  and  C22_32 
REMARK   13  A    between atoms: C23_33  and  O4_34 
REMARK   14  A    between atoms: C31_43  and  C32_44 
ROOT
HETATM    1  N1  MK1 B 902      11.697  23.044   4.755  1.00 28.25     0.096 N 
HETATM    2  C1  MK1 B 902      11.378  24.012   5.838  1.00 30.30     0.307 C 
HETATM    3  C2  MK1 B 902      12.472  24.702   6.628  1.00 27.27     0.200 C 
HETATM    4  N3  MK1 B 902      13.219  23.528   7.203  1.00 28.91    -0.395 N 
HETATM    5  C8  MK1 B 902      13.453  22.338   6.348  1.00 26.24     0.148 C 
HETATM    6  C9  MK1 B 902      12.381  21.978   5.339  1.00 27.47     0.292 C 
ENDROOT
BRANCH   1   7
HETATM    7  C31 MK1 B 902      10.604  22.654   3.857  1.00 36.25     0.312 C 
BRANCH   7   8
HETATM    8  C32 MK1 B 902       9.609  23.688   3.315  1.00 42.75    -0.015 A 
HETATM    9  C36 MK1 B 902      10.071  24.590   2.380  1.00 44.71     0.011 A 
HETATM   10  C35 MK1 B 902       9.178  25.544   1.899  1.00 49.34     0.018 A 
HETATM   11  C34 MK1 B 902       7.861  25.565   2.367  1.00 50.60     0.087 A 
HETATM   12  N5  MK1 B 902       7.315  24.692   3.307  1.00 51.38    -0.375 N 
HETATM   13  C33 MK1 B 902       8.276  23.764   3.742  1.00 47.41     0.096 A 
HETATM   14  H5  MK1 B 902       6.350  24.724   3.636  1.00  0.00     0.164 HD
ENDBRANCH   7   8
ENDBRANCH   1   7
BRANCH   3  15
HETATM   15  C3  MK1 B 902      11.827  25.563   7.680  1.00 28.85     0.242 C 
HETATM   16  O1  MK1 B 902      12.484  25.981   8.625  1.00 29.59    -0.271 OA
HETATM   17  N2  MK1 B 902      10.542  25.821   7.536  1.00 22.29    -0.351 N 
HETATM   18  H2  MK1 B 902      10.098  25.357   6.744  1.00  0.00     0.163 HD
BRANCH  17  19
HETATM   19  C4  MK1 B 902       9.673  26.648   8.311  1.00 23.47     0.022 C 
HETATM   20  C7  MK1 B 902       9.325  26.072   9.614  1.00 22.75     0.037 C 
HETATM   21  C5  MK1 B 902       8.335  26.727   7.554  1.00 27.66     0.037 C 
HETATM   22  C6  MK1 B 902      10.178  27.919   8.534  1.00 21.71     0.037 C 
ENDBRANCH  17  19
ENDBRANCH   3  15
BRANCH   4  23
HETATM   23  C10 MK1 B 902      14.419  23.806   7.966  1.00 20.86     0.149 C 
BRANCH  23  24
HETATM   24  C11 MK1 B 902      15.645  23.009   7.518  1.00 21.68     0.136 C 
BRANCH  24  25
HETATM   25  O2  MK1 B 902      16.188  24.037   6.745  1.00 15.87    -0.394 OA
HETATM   26  H2  MK1 B 902      16.498  23.660   5.930  1.00  0.00     0.210 HD
ENDBRANCH  24  25
BRANCH  24  27
HETATM   27  C12 MK1 B 902      16.742  22.501   8.471  1.00 21.49     0.047 C 
BRANCH  27  28
HETATM   28  C13 MK1 B 902      16.993  20.996   8.641  1.00 26.89     0.084 C 
BRANCH  28  29
HETATM   29  C21 MK1 B 902      16.388  20.182   7.504  1.00 29.35     0.222 C 
HETATM   30  N4  MK1 B 902      17.244  19.795   6.562  1.00 31.19    -0.350 N 
HETATM   31  H4  MK1 B 902      18.161  20.239   6.509  1.00  0.00     0.163 HD
HETATM   32  O3  MK1 B 902      15.201  19.825   7.545  1.00 32.66    -0.273 OA
BRANCH  30  33
HETATM   33  C22 MK1 B 902      16.904  18.756   5.605  1.00 29.22     0.147 C 
HETATM   34  C30 MK1 B 902      16.194  19.168   4.289  1.00 31.86    -0.027 A 
HETATM   35  C29 MK1 B 902      15.248  20.097   3.992  1.00 27.70     0.010 A 
HETATM   36  C25 MK1 B 902      16.701  18.318   3.089  1.00 31.29    -0.047 A 
HETATM   37  C28 MK1 B 902      14.776  20.270   2.698  1.00 29.01     0.001 A 
HETATM   38  C27 MK1 B 902      15.252  19.507   1.622  1.00 28.00     0.001 A 
HETATM   39  C26 MK1 B 902      16.224  18.519   1.816  1.00 32.00     0.008 A 
HETATM   40  C24 MK1 B 902      17.727  17.441   3.763  1.00 32.05     0.073 C 
HETATM   41  C23 MK1 B 902      18.135  18.025   5.096  1.00 28.82     0.149 C 
BRANCH  41  42
HETATM   42  O4  MK1 B 902      19.239  18.916   5.020  1.00 28.32    -0.393 OA
HETATM   43  H4  MK1 B 902      20.030  18.441   4.791  1.00  0.00     0.210 HD
ENDBRANCH  41  42
ENDBRANCH  30  33
ENDBRANCH  28  29
BRANCH  28  44
HETATM   44  C14 MK1 B 902      16.451  20.462   9.979  1.00 28.67     0.052 C 
BRANCH  44  45
HETATM   45  C15 MK1 B 902      17.256  19.331  10.506  1.00 26.89    -0.057 A 
HETATM   46  C16 MK1 B 902      18.632  19.425  10.726  1.00 29.22     0.007 A 
HETATM   47  C17 MK1 B 902      19.350  18.331  11.186  1.00 29.22     0.001 A 
HETATM   48  C18 MK1 B 902      18.673  17.134  11.424  1.00 30.97     0.000 A 
HETATM   49  C19 MK1 B 902      17.292  17.037  11.212  1.00 29.25     0.001 A 
HETATM   50  C20 MK1 B 902      16.583  18.146  10.750  1.00 29.96     0.007 A 
ENDBRANCH  44  45
ENDBRANCH  28  44
ENDBRANCH  27  28
ENDBRANCH  24  27
ENDBRANCH  23  24
ENDBRANCH   4  23
TORSDOF 14
ENDMDL
MODEL 9
REMARK VINA RESULT:      -9.3      2.056     10.611
REMARK  14 active torsions:
REMARK  status: ('A' for Active; 'I' for Inactive)
REMARK    1  A    between atoms: N1_1  and  C31_43 
REMARK    2  A    between atoms: C2_3  and  C3_4 
REMARK       I    between atoms: C3_4  and  N2_6 
REMARK    3  A    between atoms: N2_6  and  C4_8 
REMARK    4  A    between atoms: N3_12  and  C10_15 
REMARK    5  A    between atoms: C10_15  and  C11_16 
REMARK    6  A    between atoms: C11_16  and  O2_17 
REMARK    7  A    between atoms: C11_16  and  C12_19 
REMARK    8  A    between atoms: C12_19  and  C13_20 
REMARK    9  A    between atoms: C13_20  and  C21_28 
REMARK   10  A    between atoms: C13_20  and  C14_21 
REMARK   11  A    between atoms: C14_21  and  C15_22 
REMARK       I    between atoms: C21_28  and  N4_30 
REMARK   12  A    between atoms: N4_30  and  C22_32 
REMARK   13  A    between atoms: C23_33  and  O4_34 
REMARK   14  A    between atoms: C31_43  and  C32_44 
ROOT
HETATM    1  N1  MK1 B 902      17.243  18.525   4.461  1.00 28.25     0.096 N 
HETATM    2  C1  MK1 B 902      17.002  19.690   5.354  1.00 30.30     0.307 C 
HETATM    3  C2  MK1 B 902      15.597  20.157   5.678  1.00 27.27     0.200 C 
HETATM    4  N3  MK1 B 902      15.048  20.448   4.308  1.00 28.91    -0.395 N 
HETATM    5  C8  MK1 B 902      15.364  19.517   3.195  1.00 26.24     0.148 C 
HETATM    6  C9  MK1 B 902      16.723  18.846   3.208  1.00 27.47     0.292 C 
ENDROOT
BRANCH   1   7
HETATM    7  C31 MK1 B 902      18.600  17.966   4.438  1.00 36.25     0.312 C 
BRANCH   7   8
HETATM    8  C32 MK1 B 902      18.999  16.799   5.349  1.00 42.75    -0.015 A 
HETATM    9  C36 MK1 B 902      19.003  17.022   6.710  1.00 44.71     0.011 A 
HETATM   10  C35 MK1 B 902      19.383  15.972   7.542  1.00 49.34     0.018 A 
HETATM   11  C34 MK1 B 902      19.748  14.741   6.988  1.00 50.60     0.087 A 
HETATM   12  N5  MK1 B 902      19.772  14.433   5.628  1.00 51.38    -0.375 N 
HETATM   13  C33 MK1 B 902      19.376  15.540   4.860  1.00 47.41     0.096 A 
HETATM   14  H5  MK1 B 902      20.041  13.528   5.244  1.00  0.00     0.164 HD
ENDBRANCH   7   8
ENDBRANCH   1   7
BRANCH   3  15
HETATM   15  C3  MK1 B 902      15.693  21.382   6.547  1.00 28.85     0.242 C 
HETATM   16  O1  MK1 B 902      15.997  22.463   6.060  1.00 29.59    -0.271 OA
HETATM   17  N2  MK1 B 902      15.450  21.223   7.833  1.00 22.29    -0.351 N 
HETATM   18  H2  MK1 B 902      15.275  20.260   8.121  1.00  0.00     0.163 HD
BRANCH  17  19
HETATM   19  C4  MK1 B 902      15.393  22.184   8.889  1.00 23.47     0.022 C 
HETATM   20  C7  MK1 B 902      16.657  22.898   9.099  1.00 22.75     0.037 C 
HETATM   21  C5  MK1 B 902      15.168  21.402  10.196  1.00 27.66     0.037 C 
HETATM   22  C6  MK1 B 902      14.397  23.131   8.716  1.00 21.71     0.037 C 
ENDBRANCH  17  19
ENDBRANCH   3  15
BRANCH   4  23
HETATM   23  C10 MK1 B 902      13.657  20.843   4.213  1.00 20.86     0.149 C 
BRANCH  23  24
HETATM   24  C11 MK1 B 902      13.447  22.332   3.934  1.00 21.68     0.136 C 
BRANCH  24  25
HETATM   25  O2  MK1 B 902      14.756  22.567   3.508  1.00 15.87    -0.394 OA
HETATM   26  H2  MK1 B 902      15.326  22.512   4.267  1.00  0.00     0.210 HD
ENDBRANCH  24  25
BRANCH  24  27
HETATM   27  C12 MK1 B 902      12.492  22.884   2.860  1.00 21.49     0.047 C 
BRANCH  27  28
HETATM   28  C13 MK1 B 902      11.364  23.854   3.241  1.00 26.89     0.084 C 
BRANCH  28  29
HETATM   29  C21 MK1 B 902      11.808  24.864   4.293  1.00 29.35     0.222 C 
HETATM   30  N4  MK1 B 902      10.848  25.302   5.103  1.00 31.19    -0.350 N 
HETATM   31  H4  MK1 B 902       9.873  25.148   4.849  1.00  0.00     0.163 HD
HETATM   32  O3  MK1 B 902      13.008  25.148   4.429  1.00 32.66    -0.273 OA
BRANCH  30  33
HETATM   33  C22 MK1 B 902      11.157  25.996   6.342  1.00 29.22     0.147 C 
HETATM   34  C30 MK1 B 902      10.027  26.800   7.039  1.00 31.86    -0.027 A 
HETATM   35  C29 MK1 B 902       9.005  27.565   6.573  1.00 27.70     0.010 A 
HETATM   36  C25 MK1 B 902      10.123  26.674   8.586  1.00 31.29    -0.047 A 
HETATM   37  C28 MK1 B 902       8.108  28.185   7.433  1.00 29.01     0.001 A 
HETATM   38  C27 MK1 B 902       8.196  28.052   8.827  1.00 28.00     0.001 A 
HETATM   39  C26 MK1 B 902       9.213  27.290   9.413  1.00 32.00     0.008 A 
HETATM   40  C24 MK1 B 902      11.316  25.762   8.733  1.00 32.05     0.073 C 
HETATM   41  C23 MK1 B 902      11.598  25.039   7.437  1.00 28.82     0.149 C 
BRANCH  41  42
HETATM   42  O4  MK1 B 902      10.918  23.799   7.309  1.00 28.32    -0.393 OA
HETATM   43  H4  MK1 B 902      10.226  23.868   6.661  1.00  0.00     0.210 HD
ENDBRANCH  41  42
ENDBRANCH  30  33
ENDBRANCH  28  29
BRANCH  28  44
HETATM   44  C14 MK1 B 902      10.113  23.120   3.754  1.00 28.67     0.052 C 
BRANCH  44  45
HETATM   45  C15 MK1 B 902       8.860  23.652   3.162  1.00 26.89    -0.057 A 
HETATM   46  C16 MK1 B 902       8.851  24.690   2.227  1.00 29.22     0.007 A 
HETATM   47  C17 MK1 B 902       7.653  25.181   1.727  1.00 29.22     0.001 A 
HETATM   48  C18 MK1 B 902       6.457  24.619   2.178  1.00 30.97     0.000 A 
HETATM   49  C19 MK1 B 902       6.461  23.574   3.109  1.00 29.25     0.001 A 
HETATM   50  C20 MK1 B 902       7.673  23.090   3.601  1.00 29.96     0.007 A 
ENDBRANCH  44  45
ENDBRANCH  28  44
ENDBRANCH  27  28
ENDBRANCH  24  27
ENDBRANCH  23  24
ENDBRANCH   4  23
TORSDOF 14
ENDMDL
MODEL 10
REMARK VINA RESULT:      -9.2      2.040     10.508
REMARK  14 active torsions:
REMARK  status: ('A' for Active; 'I' for Inactive)
REMARK    1  A    between atoms: N1_1  and  C31_43 
REMARK    2  A    between atoms: C2_3  and  C3_4 
REMARK       I    between atoms: C3_4  and  N2_6 
REMARK    3  A    between atoms: N2_6  and  C4_8 
REMARK    4  A    between atoms: N3_12  and  C10_15 
REMARK    5  A    between atoms: C10_15  and  C11_16 
REMARK    6  A    between atoms: C11_16  and  O2_17 
REMARK    7  A    between atoms: C11_16  and  C12_19 
REMARK    8  A    between atoms: C12_19  and  C13_20 
REMARK    9  A    between atoms: C13_20  and  C21_28 
REMARK   10  A    between atoms: C13_20  and  C14_21 
REMARK   11  A    between atoms: C14_21  and  C15_22 
REMARK       I    between atoms: C21_28  and  N4_30 
REMARK   12  A    between atoms: N4_30  and  C22_32 
REMARK   13  A    between atoms: C23_33  and  O4_34 
REMARK   14  A    between atoms: C31_43  and  C32_44 
ROOT
HETATM    1  N1  MK1 B 902      14.824  19.875   4.090  1.00 28.25     0.096 N 
HETATM    2  C1  MK1 B 902      15.357  20.202   5.440  1.00 30.30     0.307 C 
HETATM    3  C2  MK1 B 902      14.961  21.477   6.157  1.00 27.27     0.200 C 
HETATM    4  N3  MK1 B 902      15.398  22.529   5.173  1.00 28.91    -0.395 N 
HETATM    5  C8  MK1 B 902      15.165  22.298   3.725  1.00 26.24     0.148 C 
HETATM    6  C9  MK1 B 902      15.260  20.873   3.219  1.00 27.47     0.292 C 
ENDROOT
BRANCH   1   7
HETATM    7  C31 MK1 B 902      15.021  18.505   3.603  1.00 36.25     0.312 C 
BRANCH   7   8
HETATM    8  C32 MK1 B 902      16.352  17.770   3.803  1.00 42.75    -0.015 A 
HETATM    9  C36 MK1 B 902      16.550  17.120   5.002  1.00 44.71     0.011 A 
HETATM   10  C35 MK1 B 902      17.764  16.467   5.198  1.00 49.34     0.018 A 
HETATM   11  C34 MK1 B 902      18.737  16.489   4.193  1.00 50.60     0.087 A 
HETATM   12  N5  MK1 B 902      18.617  17.121   2.956  1.00 51.38    -0.375 N 
HETATM   13  C33 MK1 B 902      17.368  17.752   2.837  1.00 47.41     0.096 A 
HETATM   14  H5  MK1 B 902      19.339  17.124   2.235  1.00  0.00     0.164 HD
ENDBRANCH   7   8
ENDBRANCH   1   7
BRANCH   3  15
HETATM   15  C3  MK1 B 902      15.711  21.541   7.460  1.00 28.85     0.242 C 
HETATM   16  O1  MK1 B 902      15.426  22.389   8.296  1.00 29.59    -0.271 OA
HETATM   17  N2  MK1 B 902      16.678  20.662   7.637  1.00 22.29    -0.351 N 
HETATM   18  H2  MK1 B 902      16.858  20.056   6.837  1.00  0.00     0.163 HD
BRANCH  17  19
HETATM   19  C4  MK1 B 902      17.513  20.423   8.770  1.00 23.47     0.022 C 
HETATM   20  C7  MK1 B 902      18.482  21.495   9.021  1.00 22.75     0.037 C 
HETATM   21  C5  MK1 B 902      18.376  19.191   8.440  1.00 27.66     0.037 C 
HETATM   22  C6  MK1 B 902      16.803  20.214   9.942  1.00 21.71     0.037 C 
ENDBRANCH  17  19
ENDBRANCH   3  15
BRANCH   4  23
HETATM   23  C10 MK1 B 902      15.092  23.910   5.487  1.00 20.86     0.149 C 
BRANCH  23  24
HETATM   24  C11 MK1 B 902      13.662  24.328   5.141  1.00 21.68     0.136 C 
BRANCH  24  25
HETATM   25  O2  MK1 B 902      14.013  25.590   4.659  1.00 15.87    -0.394 OA
HETATM   26  H2  MK1 B 902      13.712  25.656   3.760  1.00  0.00     0.210 HD
ENDBRANCH  24  25
BRANCH  24  27
HETATM   27  C12 MK1 B 902      12.793  23.636   4.075  1.00 21.49     0.047 C 
BRANCH  27  28
HETATM   28  C13 MK1 B 902      11.489  24.284   3.588  1.00 26.89     0.084 C 
BRANCH  28  29
HETATM   29  C21 MK1 B 902      10.535  24.586   4.738  1.00 29.35     0.222 C 
HETATM   30  N4  MK1 B 902      10.064  25.829   4.777  1.00 31.19    -0.350 N 
HETATM   31  H4  MK1 B 902      10.522  26.553   4.223  1.00  0.00     0.163 HD
HETATM   32  O3  MK1 B 902      10.156  23.681   5.497  1.00 32.66    -0.273 OA
BRANCH  30  33
HETATM   33  C22 MK1 B 902       8.914  26.182   5.592  1.00 29.22     0.147 C 
HETATM   34  C30 MK1 B 902       9.159  26.659   7.048  1.00 31.86    -0.027 A 
HETATM   35  C29 MK1 B 902      10.043  26.292   8.012  1.00 27.70     0.010 A 
HETATM   36  C25 MK1 B 902       8.169  27.792   7.440  1.00 31.29    -0.047 A 
HETATM   37  C28 MK1 B 902      10.055  26.899   9.261  1.00 29.01     0.001 A 
HETATM   38  C27 MK1 B 902       9.165  27.930   9.598  1.00 28.00     0.001 A 
HETATM   39  C26 MK1 B 902       8.211  28.383   8.681  1.00 32.00     0.008 A 
HETATM   40  C24 MK1 B 902       7.383  27.952   6.161  1.00 32.05     0.073 C 
HETATM   41  C23 MK1 B 902       8.129  27.339   4.998  1.00 28.82     0.149 C 
BRANCH  41  42
HETATM   42  O4  MK1 B 902       9.005  28.240   4.337  1.00 28.32    -0.393 OA
HETATM   43  H4  MK1 B 902       8.625  28.524   3.513  1.00  0.00     0.210 HD
ENDBRANCH  41  42
ENDBRANCH  30  33
ENDBRANCH  28  29
BRANCH  28  44
HETATM   44  C14 MK1 B 902      10.758  23.415   2.550  1.00 28.67     0.052 C 
BRANCH  44  45
HETATM   45  C15 MK1 B 902       9.416  23.950   2.206  1.00 26.89    -0.057 A 
HETATM   46  C16 MK1 B 902       9.228  25.231   1.684  1.00 29.22     0.007 A 
HETATM   47  C17 MK1 B 902       7.953  25.703   1.411  1.00 29.22     0.001 A 
HETATM   48  C18 MK1 B 902       6.859  24.873   1.670  1.00 30.97     0.000 A 
HETATM   49  C19 MK1 B 902       7.044  23.584   2.185  1.00 29.25     0.001 A 
HETATM   50  C20 MK1 B 902       8.333  23.124   2.454  1.00 29.96     0.007 A 
ENDBRANCH  44  45
ENDBRANCH  28  44
ENDBRANCH  27  28
ENDBRANCH  24  27
ENDBRANCH  23  24
ENDBRANCH   4  23
TORSDOF 14
ENDMDL
MODEL 11
REMARK VINA RESULT:      -9.0      3.592     11.516
REMARK  14 active torsions:
REMARK  status: ('A' for Active; 'I' for Inactive)
REMARK    1  A    between atoms: N1_1  and  C31_43 
REMARK    2  A    between atoms: C2_3  and  C3_4 
REMARK       I    between atoms: C3_4  and  N2_6 
REMARK    3  A    between atoms: N2_6  and  C4_8 
REMARK    4  A    between atoms: N3_12  and  C10_15 
REMARK    5  A    between atoms: C10_15  and  C11_16 
REMARK    6  A    between atoms: C11_16  and  O2_17 
REMARK    7  A    between atoms: C11_16  and  C12_19 
REMARK    8  A    between atoms: C12_19  and  C13_20 
REMARK    9  A    between atoms: C13_20  and  C21_28 
REMARK   10  A    between atoms: C13_20  and  C14_21 
REMARK   11  A    between atoms: C14_21  and  C15_22 
REMARK       I    between atoms: C21_28  and  N4_30 
REMARK   12  A    between atoms: N4_30  and  C22_32 
REMARK   13  A    between atoms: C23_33  and  O4_34 
REMARK   14  A    between atoms: C31_43  and  C32_44 
ROOT
HETATM    1  N1  MK1 B 902      12.085  22.318   4.763  1.00 28.25     0.096 N 
HETATM    2  C1  MK1 B 902      11.640  23.514   5.528  1.00 30.30     0.307 C 
HETATM    3  C2  MK1 B 902      10.290  24.155   5.275  1.00 27.27     0.200 C 
HETATM    4  N3  MK1 B 902      10.383  24.496   3.812  1.00 28.91    -0.395 N 
HETATM    5  C8  MK1 B 902      11.013  23.521   2.886  1.00 26.24     0.148 C 
HETATM    6  C9  MK1 B 902      12.160  22.688   3.421  1.00 27.47     0.292 C 
ENDROOT
BRANCH   1   7
HETATM    7  C31 MK1 B 902      13.258  21.596   5.268  1.00 36.25     0.312 C 
BRANCH   7   8
HETATM    8  C32 MK1 B 902      14.199  22.225   6.303  1.00 42.75    -0.015 A 
HETATM    9  C36 MK1 B 902      14.033  21.862   7.623  1.00 44.71     0.011 A 
HETATM   10  C35 MK1 B 902      14.871  22.445   8.570  1.00 49.34     0.018 A 
HETATM   11  C34 MK1 B 902      15.840  23.369   8.168  1.00 50.60     0.087 A 
HETATM   12  N5  MK1 B 902      16.074  23.789   6.860  1.00 51.38    -0.375 N 
HETATM   13  C33 MK1 B 902      15.191  23.157   5.968  1.00 47.41     0.096 A 
HETATM   14  H5  MK1 B 902      16.788  24.464   6.587  1.00  0.00     0.164 HD
ENDBRANCH   7   8
ENDBRANCH   1   7
BRANCH   3  15
HETATM   15  C3  MK1 B 902      10.168  25.368   6.156  1.00 28.85     0.242 C 
HETATM   16  O1  MK1 B 902       9.992  26.475   5.664  1.00 29.59    -0.271 OA
HETATM   17  N2  MK1 B 902      10.273  25.176   7.456  1.00 22.29    -0.351 N 
HETATM   18  H2  MK1 B 902      10.487  24.217   7.732  1.00  0.00     0.163 HD
BRANCH  17  19
HETATM   19  C4  MK1 B 902      10.137  26.095   8.541  1.00 23.47     0.022 C 
HETATM   20  C7  MK1 B 902      11.418  26.523   9.110  1.00 22.75     0.037 C 
HETATM   21  C5  MK1 B 902       9.438  25.338   9.686  1.00 27.66     0.037 C 
HETATM   22  C6  MK1 B 902       9.421  27.234   8.209  1.00 21.71     0.037 C 
ENDBRANCH  17  19
ENDBRANCH   3  15
BRANCH   4  23
HETATM   23  C10 MK1 B 902       9.208  25.059   3.178  1.00 20.86     0.149 C 
BRANCH  23  24
HETATM   24  C11 MK1 B 902       7.912  24.304   3.480  1.00 21.68     0.136 C 
BRANCH  24  25
HETATM   25  O2  MK1 B 902       7.458  25.212   4.438  1.00 15.87    -0.394 OA
HETATM   26  H2  MK1 B 902       7.949  26.019   4.335  1.00  0.00     0.210 HD
ENDBRANCH  24  25
BRANCH  24  27
HETATM   27  C12 MK1 B 902       6.782  24.085   2.458  1.00 21.49     0.047 C 
BRANCH  27  28
HETATM   28  C13 MK1 B 902       5.319  24.003   2.917  1.00 26.89     0.084 C 
BRANCH  28  29
HETATM   29  C21 MK1 B 902       4.753  25.372   3.277  1.00 29.35     0.222 C 
HETATM   30  N4  MK1 B 902       4.635  25.614   4.580  1.00 31.19    -0.350 N 
HETATM   31  H4  MK1 B 902       4.687  24.837   5.238  1.00  0.00     0.163 HD
HETATM   32  O3  MK1 B 902       4.539  26.218   2.396  1.00 32.66    -0.273 OA
BRANCH  30  33
HETATM   33  C22 MK1 B 902       4.432  26.960   5.088  1.00 29.22     0.147 C 
HETATM   34  C30 MK1 B 902       3.227  27.220   6.029  1.00 31.86    -0.027 A 
HETATM   35  C29 MK1 B 902       1.953  26.747   6.065  1.00 27.70     0.010 A 
HETATM   36  C25 MK1 B 902       3.599  28.235   7.148  1.00 31.29    -0.047 A 
HETATM   37  C28 MK1 B 902       1.054  27.147   7.043  1.00 29.01     0.001 A 
HETATM   38  C27 MK1 B 902       1.405  28.053   8.055  1.00 28.00     0.001 A 
HETATM   39  C26 MK1 B 902       2.690  28.605   8.111  1.00 32.00     0.008 A 
HETATM   40  C24 MK1 B 902       5.045  28.515   6.822  1.00 32.05     0.073 C 
HETATM   41  C23 MK1 B 902       5.608  27.437   5.925  1.00 28.82     0.149 C 
BRANCH  41  42
HETATM   42  O4  MK1 B 902       6.185  26.346   6.627  1.00 28.32    -0.393 OA
HETATM   43  H4  MK1 B 902       5.819  26.288   7.503  1.00  0.00     0.210 HD
ENDBRANCH  41  42
ENDBRANCH  30  33
ENDBRANCH  28  29
BRANCH  28  44
HETATM   44  C14 MK1 B 902       5.136  23.058   4.117  1.00 28.67     0.052 C 
BRANCH  44  45
HETATM   45  C15 MK1 B 902       4.054  22.065   3.898  1.00 26.89    -0.057 A 
HETATM   46  C16 MK1 B 902       4.073  20.793   4.473  1.00 29.22     0.007 A 
HETATM   47  C17 MK1 B 902       3.058  19.884   4.212  1.00 29.22     0.001 A 
HETATM   48  C18 MK1 B 902       2.017  20.265   3.362  1.00 30.97     0.000 A 
HETATM   49  C19 MK1 B 902       1.990  21.543   2.790  1.00 29.25     0.001 A 
HETATM   50  C20 MK1 B 902       3.017  22.445   3.063  1.00 29.96     0.007 A 
ENDBRANCH  44  45
ENDBRANCH  28  44
ENDBRANCH  27  28
ENDBRANCH  24  27
ENDBRANCH  23  24
ENDBRANCH   4  23
TORSDOF 14
ENDMDL
MODEL 12
REMARK VINA RESULT:      -8.9      2.893     11.021
REMARK  14 active torsions:
REMARK  status: ('A' for Active; 'I' for Inactive)
REMARK    1  A    between atoms: N1_1  and  C31_43 
REMARK    2  A    between atoms: C2_3  and  C3_4 
REMARK       I    between atoms: C3_4  and  N2_6 
REMARK    3  A    between atoms: N2_6  and  C4_8 
REMARK    4  A    between atoms: N3_12  and  C10_15 
REMARK    5  A    between atoms: C10_15  and  C11_16 
REMARK    6  A    between atoms: C11_16  and  O2_17 
REMARK    7  A    between atoms: C11_16  and  C12_19 
REMARK    8  A    between atoms: C12_19  and  C13_20 
REMARK    9  A    between atoms: C13_20  and  C21_28 
REMARK   10  A    between atoms: C13_20  and  C14_21 
REMARK   11  A    between atoms: C14_21  and  C15_22 
REMARK       I    between atoms: C21_28  and  N4_30 
REMARK   12  A    between atoms: N4_30  and  C22_32 
REMARK   13  A    between atoms: C23_33  and  O4_34 
REMARK   14  A    between atoms: C31_43  and  C32_44 
ROOT
HETATM    1  N1  MK1 B 902      18.384  17.747   5.708  1.00 28.25     0.096 N 
HETATM    2  C1  MK1 B 902      18.715  17.682   7.157  1.00 30.30     0.307 C 
HETATM    3  C2  MK1 B 902      17.964  18.518   8.175  1.00 27.27     0.200 C 
HETATM    4  N3  MK1 B 902      18.205  19.912   7.662  1.00 28.91    -0.395 N 
HETATM    5  C8  MK1 B 902      18.149  20.159   6.200  1.00 26.24     0.148 C 
HETATM    6  C9  MK1 B 902      18.629  19.052   5.283  1.00 27.47     0.292 C 
ENDROOT
BRANCH   1   7
HETATM    7  C31 MK1 B 902      18.948  16.703   4.843  1.00 36.25     0.312 C 
BRANCH   7   8
HETATM    8  C32 MK1 B 902      19.662  15.480   5.429  1.00 42.75    -0.015 A 
HETATM    9  C36 MK1 B 902      21.004  15.328   5.152  1.00 44.71     0.011 A 
HETATM   10  C35 MK1 B 902      21.653  14.208   5.665  1.00 49.34     0.018 A 
HETATM   11  C34 MK1 B 902      20.942  13.280   6.432  1.00 50.60     0.087 A 
HETATM   12  N5  MK1 B 902      19.588  13.358   6.757  1.00 51.38    -0.375 N 
HETATM   13  C33 MK1 B 902      19.008  14.512   6.205  1.00 47.41     0.096 A 
HETATM   14  H5  MK1 B 902      19.087  12.670   7.320  1.00  0.00     0.164 HD
ENDBRANCH   7   8
ENDBRANCH   1   7
BRANCH   3  15
HETATM   15  C3  MK1 B 902      18.572  18.274   9.529  1.00 28.85     0.242 C 
HETATM   16  O1  MK1 B 902      19.367  19.075  10.003  1.00 29.59    -0.271 OA
HETATM   17  N2  MK1 B 902      18.217  17.168  10.153  1.00 22.29    -0.351 N 
HETATM   18  H2  MK1 B 902      17.600  16.554   9.621  1.00  0.00     0.163 HD
BRANCH  17  19
HETATM   19  C4  MK1 B 902      18.557  16.692  11.456  1.00 23.47     0.022 C 
HETATM   20  C7  MK1 B 902      18.949  17.757  12.385  1.00 22.75     0.037 C 
HETATM   21  C5  MK1 B 902      19.822  15.828  11.302  1.00 27.66     0.037 C 
HETATM   22  C6  MK1 B 902      17.544  15.961  12.055  1.00 21.71     0.037 C 
ENDBRANCH  17  19
ENDBRANCH   3  15
BRANCH   4  23
HETATM   23  C10 MK1 B 902      17.547  21.003   8.352  1.00 20.86     0.149 C 
BRANCH  23  24
HETATM   24  C11 MK1 B 902      16.028  21.028   8.177  1.00 21.68     0.136 C 
BRANCH  24  25
HETATM   25  O2  MK1 B 902      15.750  21.288   9.520  1.00 15.87    -0.394 OA
HETATM   26  H2  MK1 B 902      16.064  22.161   9.722  1.00  0.00     0.210 HD
ENDBRANCH  24  25
BRANCH  24  27
HETATM   27  C12 MK1 B 902      15.273  22.066   7.325  1.00 21.49     0.047 C 
BRANCH  27  28
HETATM   28  C13 MK1 B 902      14.253  21.618   6.269  1.00 26.89     0.084 C 
BRANCH  28  29
HETATM   29  C21 MK1 B 902      12.852  22.138   6.567  1.00 29.35     0.222 C 
HETATM   30  N4  MK1 B 902      12.649  23.421   6.282  1.00 31.19    -0.350 N 
HETATM   31  H4  MK1 B 902      13.451  24.029   6.120  1.00  0.00     0.163 HD
HETATM   32  O3  MK1 B 902      11.958  21.365   6.939  1.00 32.66    -0.273 OA
BRANCH  30  33
HETATM   33  C22 MK1 B 902      11.310  23.978   6.194  1.00 29.22     0.147 C 
HETATM   34  C30 MK1 B 902      10.931  25.142   7.147  1.00 31.86    -0.027 A 
HETATM   35  C29 MK1 B 902      11.231  25.421   8.443  1.00 27.70     0.010 A 
HETATM   36  C25 MK1 B 902      10.021  26.180   6.430  1.00 31.29    -0.047 A 
HETATM   37  C28 MK1 B 902      10.755  26.563   9.073  1.00 29.01     0.001 A 
HETATM   38  C27 MK1 B 902       9.947  27.499   8.411  1.00 28.00     0.001 A 
HETATM   39  C26 MK1 B 902       9.573  27.308   7.076  1.00 32.00     0.008 A 
HETATM   40  C24 MK1 B 902       9.922  25.579   5.049  1.00 32.05     0.073 C 
HETATM   41  C23 MK1 B 902      11.028  24.574   4.825  1.00 28.82     0.149 C 
BRANCH  41  42
HETATM   42  O4  MK1 B 902      12.214  25.134   4.279  1.00 28.32    -0.393 OA
HETATM   43  H4  MK1 B 902      12.488  24.642   3.514  1.00  0.00     0.210 HD
ENDBRANCH  41  42
ENDBRANCH  30  33
ENDBRANCH  28  29
BRANCH  28  44
HETATM   44  C14 MK1 B 902      14.196  20.086   6.128  1.00 28.67     0.052 C 
BRANCH  44  45
HETATM   45  C15 MK1 B 902      14.652  19.622   4.794  1.00 26.89    -0.057 A 
HETATM   46  C16 MK1 B 902      14.654  20.449   3.669  1.00 29.22     0.007 A 
HETATM   47  C17 MK1 B 902      15.055  19.961   2.434  1.00 29.22     0.001 A 
HETATM   48  C18 MK1 B 902      15.454  18.627   2.335  1.00 30.97     0.000 A 
HETATM   49  C19 MK1 B 902      15.460  17.796   3.462  1.00 29.25     0.001 A 
HETATM   50  C20 MK1 B 902      15.056  18.301   4.697  1.00 29.96     0.007 A 
ENDBRANCH  44  45
ENDBRANCH  28  44
ENDBRANCH  27  28
ENDBRANCH  24  27
ENDBRANCH  23  24
ENDBRANCH   4  23
TORSDOF 14
ENDMDL
MODEL 13
REMARK VINA RESULT:      -8.9      4.101     10.891
REMARK  14 active torsions:
REMARK  status: ('A' for Active; 'I' for Inactive)
REMARK    1  A    between atoms: N1_1  and  C31_43 
REMARK    2  A    between atoms: C2_3  and  C3_4 
REMARK       I    between atoms: C3_4  and  N2_6 
REMARK    3  A    between atoms: N2_6  and  C4_8 
REMARK    4  A    between atoms: N3_12  and  C10_15 
REMARK    5  A    between atoms: C10_15  and  C11_16 
REMARK    6  A    between atoms: C11_16  and  O2_17 
REMARK    7  A    between atoms: C11_16  and  C12_19 
REMARK    8  A    between atoms: C12_19  and  C13_20 
REMARK    9  A    between atoms: C13_20  and  C21_28 
REMARK   10  A    between atoms: C13_20  and  C14_21 
REMARK   11  A    between atoms: C14_21  and  C15_22 
REMARK       I    between atoms: C21_28  and  N4_30 
REMARK   12  A    between atoms: N4_30  and  C22_32 
REMARK   13  A    between atoms: C23_33  and  O4_34 
REMARK   14  A    between atoms: C31_43  and  C32_44 
ROOT
HETATM    1  N1  MK1 B 902      19.464  15.489   6.158  1.00 28.25     0.096 N 
HETATM    2  C1  MK1 B 902      18.761  16.120   5.009  1.00 30.30     0.307 C 
HETATM    3  C2  MK1 B 902      18.960  17.584   4.670  1.00 27.27     0.200 C 
HETATM    4  N3  MK1 B 902      18.540  18.253   5.950  1.00 28.91    -0.395 N 
HETATM    5  C8  MK1 B 902      18.948  17.650   7.244  1.00 26.24     0.148 C 
HETATM    6  C9  MK1 B 902      19.037  16.139   7.315  1.00 27.47     0.292 C 
ENDROOT
BRANCH   1   7
HETATM    7  C31 MK1 B 902      19.445  14.023   6.234  1.00 36.25     0.312 C 
BRANCH   7   8
HETATM    8  C32 MK1 B 902      20.664  13.186   5.829  1.00 42.75    -0.015 A 
HETATM    9  C36 MK1 B 902      21.764  13.856   5.335  1.00 44.71     0.011 A 
HETATM   10  C35 MK1 B 902      22.867  13.100   4.946  1.00 49.34     0.018 A 
HETATM   11  C34 MK1 B 902      22.832  11.707   5.061  1.00 50.60     0.087 A 
HETATM   12  N5  MK1 B 902      21.764  10.954   5.548  1.00 51.38    -0.375 N 
HETATM   13  C33 MK1 B 902      20.696  11.787   5.918  1.00 47.41     0.096 A 
HETATM   14  H5  MK1 B 902      21.760   9.937   5.624  1.00  0.00     0.164 HD
ENDBRANCH   7   8
ENDBRANCH   1   7
BRANCH   3  15
HETATM   15  C3  MK1 B 902      18.071  17.926   3.506  1.00 28.85     0.242 C 
HETATM   16  O1  MK1 B 902      18.559  18.253   2.431  1.00 29.59    -0.271 OA
HETATM   17  N2  MK1 B 902      16.770  17.870   3.710  1.00 22.29    -0.351 N 
HETATM   18  H2  MK1 B 902      16.496  17.651   4.668  1.00  0.00     0.163 HD
BRANCH  17  19
HETATM   19  C4  MK1 B 902      15.683  18.066   2.805  1.00 23.47     0.022 C 
HETATM   20  C7  MK1 B 902      15.281  19.469   2.667  1.00 22.75     0.037 C 
HETATM   21  C5  MK1 B 902      14.455  17.371   3.421  1.00 27.66     0.037 C 
HETATM   22  C6  MK1 B 902      15.930  17.572   1.534  1.00 21.71     0.037 C 
ENDBRANCH  17  19
ENDBRANCH   3  15
BRANCH   4  23
HETATM   23  C10 MK1 B 902      18.685  19.693   6.033  1.00 20.86     0.149 C 
BRANCH  23  24
HETATM   24  C11 MK1 B 902      19.092  20.203   7.416  1.00 21.68     0.136 C 
BRANCH  24  25
HETATM   25  O2  MK1 B 902      20.096  21.052   6.946  1.00 15.87    -0.394 OA
HETATM   26  H2  MK1 B 902      20.791  21.071   7.594  1.00  0.00     0.210 HD
ENDBRANCH  24  25
BRANCH  24  27
HETATM   27  C12 MK1 B 902      18.173  21.020   8.342  1.00 21.49     0.047 C 
BRANCH  27  28
HETATM   28  C13 MK1 B 902      16.941  20.372   8.990  1.00 26.89     0.084 C 
BRANCH  28  29
HETATM   29  C21 MK1 B 902      15.648  21.076   8.595  1.00 29.35     0.222 C 
HETATM   30  N4  MK1 B 902      15.576  21.464   7.325  1.00 31.19    -0.350 N 
HETATM   31  H4  MK1 B 902      16.427  21.498   6.765  1.00  0.00     0.163 HD
HETATM   32  O3  MK1 B 902      14.706  21.162   9.397  1.00 32.66    -0.273 OA
BRANCH  30  33
HETATM   33  C22 MK1 B 902      14.312  21.842   6.716  1.00 29.22     0.147 C 
HETATM   34  C30 MK1 B 902      13.711  23.229   7.062  1.00 31.86    -0.027 A 
HETATM   35  C29 MK1 B 902      13.667  23.967   8.202  1.00 27.70     0.010 A 
HETATM   36  C25 MK1 B 902      13.032  23.871   5.819  1.00 31.29    -0.047 A 
HETATM   37  C28 MK1 B 902      13.057  25.213   8.242  1.00 29.01     0.001 A 
HETATM   38  C27 MK1 B 902      12.459  25.788   7.110  1.00 28.00     0.001 A 
HETATM   39  C26 MK1 B 902      12.444  25.113   5.885  1.00 32.00     0.008 A 
HETATM   40  C24 MK1 B 902      13.289  22.821   4.767  1.00 32.05     0.073 C 
HETATM   41  C23 MK1 B 902      14.404  21.896   5.200  1.00 28.82     0.149 C 
BRANCH  41  42
HETATM   42  O4  MK1 B 902      15.697  22.327   4.801  1.00 28.32    -0.393 OA
HETATM   43  H4  MK1 B 902      15.665  23.227   4.497  1.00  0.00     0.210 HD
ENDBRANCH  41  42
ENDBRANCH  30  33
ENDBRANCH  28  29
BRANCH  28  44
HETATM   44  C14 MK1 B 902      17.040  20.338  10.525  1.00 28.67     0.052 C 
BRANCH  44  45
HETATM   45  C15 MK1 B 902      17.833  19.183  11.017  1.00 26.89    -0.057 A 
HETATM   46  C16 MK1 B 902      19.029  19.337  11.720  1.00 29.22     0.007 A 
HETATM   47  C17 MK1 B 902      19.756  18.229  12.129  1.00 29.22     0.001 A 
HETATM   48  C18 MK1 B 902      19.271  16.956  11.823  1.00 30.97     0.000 A 
HETATM   49  C19 MK1 B 902      18.068  16.797  11.125  1.00 29.25     0.001 A 
HETATM   50  C20 MK1 B 902      17.348  17.921  10.721  1.00 29.96     0.007 A 
ENDBRANCH  44  45
ENDBRANCH  28  44
ENDBRANCH  27  28
ENDBRANCH  24  27
ENDBRANCH  23  24
ENDBRANCH   4  23
TORSDOF 14
ENDMDL
MODEL 14
REMARK VINA RESULT:      -8.8      2.043     10.400
REMARK  14 active torsions:
REMARK  status: ('A' for Active; 'I' for Inactive)
REMARK    1  A    between atoms: N1_1  and  C31_43 
REMARK    2  A    between atoms: C2_3  and  C3_4 
REMARK       I    between atoms: C3_4  and  N2_6 
REMARK    3  A    between atoms: N2_6  and  C4_8 
REMARK    4  A    between atoms: N3_12  and  C10_15 
REMARK    5  A    between atoms: C10_15  and  C11_16 
REMARK    6  A    between atoms: C11_16  and  O2_17 
REMARK    7  A    between atoms: C11_16  and  C12_19 
REMARK    8  A    between atoms: C12_19  and  C13_20 
REMARK    9  A    between atoms: C13_20  and  C21_28 
REMARK   10  A    between atoms: C13_20  and  C14_21 
REMARK   11  A    between atoms: C14_21  and  C15_22 
REMARK       I    between atoms: C21_28  and  N4_30 
REMARK   12  A    between atoms: N4_30  and  C22_32 
REMARK   13  A    between atoms: C23_33  and  O4_34 
REMARK   14  A    between atoms: C31_43  and  C32_44 
ROOT
HETATM    1  N1  MK1 B 902      17.140  18.606   4.570  1.00 28.25     0.096 N 
HETATM    2  C1  MK1 B 902      16.901  19.798   5.427  1.00 30.30     0.307 C 
HETATM    3  C2  MK1 B 902      15.496  20.267   5.750  1.00 27.27     0.200 C 
HETATM    4  N3  MK1 B 902      14.931  20.509   4.377  1.00 28.91    -0.395 N 
HETATM    5  C8  MK1 B 902      15.241  19.544   3.292  1.00 26.24     0.148 C 
HETATM    6  C9  MK1 B 902      16.604  18.882   3.313  1.00 27.47     0.292 C 
ENDROOT
BRANCH   1   7
HETATM    7  C31 MK1 B 902      18.500  18.054   4.551  1.00 36.25     0.312 C 
BRANCH   7   8
HETATM    8  C32 MK1 B 902      18.910  16.905   5.480  1.00 42.75    -0.015 A 
HETATM    9  C36 MK1 B 902      19.137  15.671   4.909  1.00 44.71     0.011 A 
HETATM   10  C35 MK1 B 902      19.489  14.619   5.750  1.00 49.34     0.018 A 
HETATM   11  C34 MK1 B 902      19.599  14.834   7.127  1.00 50.60     0.087 A 
HETATM   12  N5  MK1 B 902      19.387  16.045   7.783  1.00 51.38    -0.375 N 
HETATM   13  C33 MK1 B 902      19.038  17.053   6.868  1.00 47.41     0.096 A 
HETATM   14  H5  MK1 B 902      19.474  16.182   8.790  1.00  0.00     0.164 HD
ENDBRANCH   7   8
ENDBRANCH   1   7
BRANCH   3  15
HETATM   15  C3  MK1 B 902      15.594  21.520   6.577  1.00 28.85     0.242 C 
HETATM   16  O1  MK1 B 902      15.825  22.598   6.043  1.00 29.59    -0.271 OA
HETATM   17  N2  MK1 B 902      15.433  21.392   7.880  1.00 22.29    -0.351 N 
HETATM   18  H2  MK1 B 902      15.314  20.432   8.204  1.00  0.00     0.163 HD
BRANCH  17  19
HETATM   19  C4  MK1 B 902      15.400  22.381   8.909  1.00 23.47     0.022 C 
HETATM   20  C7  MK1 B 902      16.683  23.062   9.109  1.00 22.75     0.037 C 
HETATM   21  C5  MK1 B 902      15.145  21.640  10.235  1.00 27.66     0.037 C 
HETATM   22  C6  MK1 B 902      14.434  23.353   8.706  1.00 21.71     0.037 C 
ENDBRANCH  17  19
ENDBRANCH   3  15
BRANCH   4  23
HETATM   23  C10 MK1 B 902      13.537  20.893   4.284  1.00 20.86     0.149 C 
BRANCH  23  24
HETATM   24  C11 MK1 B 902      13.304  22.404   4.250  1.00 21.68     0.136 C 
BRANCH  24  25
HETATM   25  O2  MK1 B 902      14.401  22.682   3.432  1.00 15.87    -0.394 OA
HETATM   26  H2  MK1 B 902      15.033  23.173   3.944  1.00  0.00     0.210 HD
ENDBRANCH  24  25
BRANCH  24  27
HETATM   27  C12 MK1 B 902      12.065  23.075   3.628  1.00 21.49     0.047 C 
BRANCH  27  28
HETATM   28  C13 MK1 B 902      11.122  23.925   4.491  1.00 26.89     0.084 C 
BRANCH  28  29
HETATM   29  C21 MK1 B 902       9.945  24.467   3.689  1.00 29.35     0.222 C 
HETATM   30  N4  MK1 B 902       8.744  24.245   4.217  1.00 31.19    -0.350 N 
HETATM   31  H4  MK1 B 902       8.647  23.551   4.958  1.00  0.00     0.163 HD
HETATM   32  O3  MK1 B 902      10.135  25.162   2.680  1.00 32.66    -0.273 OA
BRANCH  30  33
HETATM   33  C22 MK1 B 902       7.568  24.967   3.763  1.00 29.22     0.147 C 
HETATM   34  C30 MK1 B 902       6.183  24.280   3.899  1.00 31.86    -0.027 A 
HETATM   35  C29 MK1 B 902       5.761  22.997   3.749  1.00 27.70     0.010 A 
HETATM   36  C25 MK1 B 902       5.084  25.309   4.289  1.00 31.29    -0.047 A 
HETATM   37  C28 MK1 B 902       4.432  22.640   3.939  1.00 29.01     0.001 A 
HETATM   38  C27 MK1 B 902       3.453  23.575   4.305  1.00 28.00     0.001 A 
HETATM   39  C26 MK1 B 902       3.778  24.924   4.482  1.00 32.00     0.008 A 
HETATM   40  C24 MK1 B 902       5.893  26.579   4.392  1.00 32.05     0.073 C 
HETATM   41  C23 MK1 B 902       7.364  26.263   4.529  1.00 28.82     0.149 C 
BRANCH  41  42
HETATM   42  O4  MK1 B 902       7.799  26.115   5.873  1.00 28.32    -0.393 OA
HETATM   43  H4  MK1 B 902       7.275  26.658   6.450  1.00  0.00     0.210 HD
ENDBRANCH  41  42
ENDBRANCH  30  33
ENDBRANCH  28  29
BRANCH  28  44
HETATM   44  C14 MK1 B 902      11.849  25.102   5.164  1.00 28.67     0.052 C 
BRANCH  44  45
HETATM   45  C15 MK1 B 902      11.476  25.258   6.592  1.00 26.89    -0.057 A 
HETATM   46  C16 MK1 B 902      12.242  26.001   7.493  1.00 29.22     0.007 A 
HETATM   47  C17 MK1 B 902      11.874  26.089   8.828  1.00 29.22     0.001 A 
HETATM   48  C18 MK1 B 902      10.725  25.421   9.255  1.00 30.97     0.000 A 
HETATM   49  C19 MK1 B 902       9.949  24.682   8.353  1.00 29.25     0.001 A 
HETATM   50  C20 MK1 B 902      10.332  24.603   7.014  1.00 29.96     0.007 A 
ENDBRANCH  44  45
ENDBRANCH  28  44
ENDBRANCH  27  28
ENDBRANCH  24  27
ENDBRANCH  23  24
ENDBRANCH   4  23
TORSDOF 14
ENDMDL
MODEL 15
REMARK VINA RESULT:      -8.8      5.575     11.068
REMARK  14 active torsions:
REMARK  status: ('A' for Active; 'I' for Inactive)
REMARK    1  A    between atoms: N1_1  and  C31_43 
REMARK    2  A    between atoms: C2_3  and  C3_4 
REMARK       I    between atoms: C3_4  and  N2_6 
REMARK    3  A    between atoms: N2_6  and  C4_8 
REMARK    4  A    between atoms: N3_12  and  C10_15 
REMARK    5  A    between atoms: C10_15  and  C11_16 
REMARK    6  A    between atoms: C11_16  and  O2_17 
REMARK    7  A    between atoms: C11_16  and  C12_19 
REMARK    8  A    between atoms: C12_19  and  C13_20 
REMARK    9  A    between atoms: C13_20  and  C21_28 
REMARK   10  A    between atoms: C13_20  and  C14_21 
REMARK   11  A    between atoms: C14_21  and  C15_22 
REMARK       I    between atoms: C21_28  and  N4_30 
REMARK   12  A    between atoms: N4_30  and  C22_32 
REMARK   13  A    between atoms: C23_33  and  O4_34 
REMARK   14  A    between atoms: C31_43  and  C32_44 
ROOT
HETATM    1  N1  MK1 B 902      19.480  15.700   5.774  1.00 28.25     0.096 N 
HETATM    2  C1  MK1 B 902      18.705  16.383   4.703  1.00 30.30     0.307 C 
HETATM    3  C2  MK1 B 902      18.780  17.884   4.511  1.00 27.27     0.200 C 
HETATM    4  N3  MK1 B 902      18.335  18.387   5.857  1.00 28.91    -0.395 N 
HETATM    5  C8  MK1 B 902      18.818  17.694   7.078  1.00 26.24     0.148 C 
HETATM    6  C9  MK1 B 902      19.028  16.196   6.996  1.00 27.47     0.292 C 
ENDROOT
BRANCH   1   7
HETATM    7  C31 MK1 B 902      19.580  14.237   5.703  1.00 36.25     0.312 C 
BRANCH   7   8
HETATM    8  C32 MK1 B 902      19.917  13.399   6.941  1.00 42.75    -0.015 A 
HETATM    9  C36 MK1 B 902      18.887  12.713   7.549  1.00 44.71     0.011 A 
HETATM   10  C35 MK1 B 902      19.183  11.966   8.687  1.00 49.34     0.018 A 
HETATM   11  C34 MK1 B 902      20.492  11.932   9.176  1.00 50.60     0.087 A 
HETATM   12  N5  MK1 B 902      21.588  12.593   8.624  1.00 51.38    -0.375 N 
HETATM   13  C33 MK1 B 902      21.207  13.321   7.484  1.00 47.41     0.096 A 
HETATM   14  H5  MK1 B 902      22.536  12.554   8.997  1.00  0.00     0.164 HD
ENDBRANCH   7   8
ENDBRANCH   1   7
BRANCH   3  15
HETATM   15  C3  MK1 B 902      17.842  18.267   3.399  1.00 28.85     0.242 C 
HETATM   16  O1  MK1 B 902      18.241  18.318   2.242  1.00 29.59    -0.271 OA
HETATM   17  N2  MK1 B 902      16.599  18.552   3.736  1.00 22.29    -0.351 N 
HETATM   18  H2  MK1 B 902      16.413  18.537   4.739  1.00  0.00     0.163 HD
BRANCH  17  19
HETATM   19  C4  MK1 B 902      15.472  18.877   2.922  1.00 23.47     0.022 C 
HETATM   20  C7  MK1 B 902      15.834  19.371   1.590  1.00 22.75     0.037 C 
HETATM   21  C5  MK1 B 902      14.759  20.064   3.595  1.00 27.66     0.037 C 
HETATM   22  C6  MK1 B 902      14.592  17.818   2.755  1.00 21.71     0.037 C 
ENDBRANCH  17  19
ENDBRANCH   3  15
BRANCH   4  23
HETATM   23  C10 MK1 B 902      18.367  19.819   6.082  1.00 20.86     0.149 C 
BRANCH  23  24
HETATM   24  C11 MK1 B 902      19.098  20.236   7.359  1.00 21.68     0.136 C 
BRANCH  24  25
HETATM   25  O2  MK1 B 902      20.147  20.878   6.700  1.00 15.87    -0.394 OA
HETATM   26  H2  MK1 B 902      19.785  21.345   5.956  1.00  0.00     0.210 HD
ENDBRANCH  24  25
BRANCH  24  27
HETATM   27  C12 MK1 B 902      18.524  21.211   8.404  1.00 21.49     0.047 C 
BRANCH  27  28
HETATM   28  C13 MK1 B 902      17.648  20.696   9.555  1.00 26.89     0.084 C 
BRANCH  28  29
HETATM   29  C21 MK1 B 902      18.302  19.539  10.300  1.00 29.35     0.222 C 
HETATM   30  N4  MK1 B 902      17.476  18.570  10.685  1.00 31.19    -0.350 N 
HETATM   31  H4  MK1 B 902      16.471  18.744  10.688  1.00  0.00     0.163 HD
HETATM   32  O3  MK1 B 902      19.535  19.481  10.419  1.00 32.66    -0.273 OA
BRANCH  30  33
HETATM   33  C22 MK1 B 902      17.971  17.269  11.101  1.00 29.22     0.147 C 
HETATM   34  C30 MK1 B 902      18.582  17.131  12.521  1.00 31.86    -0.027 A 
HETATM   35  C29 MK1 B 902      19.354  17.947  13.285  1.00 27.70     0.010 A 
HETATM   36  C25 MK1 B 902      18.206  15.765  13.162  1.00 31.29    -0.047 A 
HETATM   37  C28 MK1 B 902      19.771  17.576  14.557  1.00 29.01     0.001 A 
HETATM   38  C27 MK1 B 902      19.414  16.346  15.130  1.00 28.00     0.001 A 
HETATM   39  C26 MK1 B 902      18.624  15.429  14.428  1.00 32.00     0.008 A 
HETATM   40  C24 MK1 B 902      17.352  15.156  12.078  1.00 32.05     0.073 C 
HETATM   41  C23 MK1 B 902      16.872  16.219  11.117  1.00 28.82     0.149 C 
BRANCH  41  42
HETATM   42  O4  MK1 B 902      15.634  16.810  11.484  1.00 28.32    -0.393 OA
HETATM   43  H4  MK1 B 902      15.548  16.835  12.430  1.00  0.00     0.210 HD
ENDBRANCH  41  42
ENDBRANCH  30  33
ENDBRANCH  28  29
BRANCH  28  44
HETATM   44  C14 MK1 B 902      16.255  20.255   9.075  1.00 28.67     0.052 C 
BRANCH  44  45
HETATM   45  C15 MK1 B 902      15.516  21.349   8.395  1.00 26.89    -0.057 A 
HETATM   46  C16 MK1 B 902      15.143  21.283   7.051  1.00 29.22     0.007 A 
HETATM   47  C17 MK1 B 902      14.485  22.345   6.447  1.00 29.22     0.001 A 
HETATM   48  C18 MK1 B 902      14.205  23.482   7.207  1.00 30.97     0.000 A 
HETATM   49  C19 MK1 B 902      14.571  23.549   8.557  1.00 29.25     0.001 A 
HETATM   50  C20 MK1 B 902      15.230  22.473   9.151  1.00 29.96     0.007 A 
ENDBRANCH  44  45
ENDBRANCH  28  44
ENDBRANCH  27  28
ENDBRANCH  24  27
ENDBRANCH  23  24
ENDBRANCH   4  23
TORSDOF 14
ENDMDL
